99
	Energy: -1581688.3242051
C          0.56512        1.18367       -0.05068
C         -1.30961       -0.10106        0.04195
C          0.73750       -1.08405       -0.08742
N         -0.59101       -1.22958       -0.01230
N         -0.77029        1.12397        0.02651
N          1.35428        0.10417       -0.11065
N          0.20336        6.11269        0.11529
N         -5.39174       -2.88777        0.20118
N          5.18848       -3.22610       -0.31571
C         -5.10990       -3.92468        1.09754
C         -5.91826       -5.04829        0.77436
C         -4.22871       -3.94863        2.18631
C         -5.82435       -6.21460        1.54758
C         -4.15521       -5.12129        2.93949
H         -3.62056       -3.08043        2.44449
C         -4.94016       -6.24662        2.62498
H         -6.44012       -7.08571        1.30973
H         -3.47407       -5.16242        3.79336
H         -4.85743       -7.14946        3.23467
C         -6.36914       -3.33179       -0.69617
C         -6.94608       -2.66937       -1.78744
C         -6.72140       -4.67020       -0.37222
C         -7.89681       -3.35955       -2.54079
H         -6.66099       -1.64901       -2.04831
C         -7.68018       -5.34068       -1.14556
C         -8.26644       -4.68034       -2.22440
H         -8.36051       -2.86175       -3.39630
H         -7.96076       -6.36965       -0.90671
H         -9.01536       -5.19155       -2.83385
C          5.91059       -2.50217       -1.27090
C          7.29891       -2.62337       -0.99117
C          5.44960       -1.77644       -2.37694
C          8.23159       -1.99163       -1.82661
C          6.39875       -1.15817       -3.19223
H          4.38480       -1.69758       -2.60118
C          7.77650       -1.25875       -2.92179
H          9.30199       -2.07674       -1.62272
H          6.06158       -0.58638       -4.06063
H          8.49307       -0.76150       -3.57978
C          6.09508       -3.80855        0.57675
C          5.85154       -4.59070        1.71316
C          7.41670       -3.45637        0.18987
C          6.95227       -5.03268        2.44856
H          4.83610       -4.84415        2.02158
C          8.50517       -3.91438        0.94639
C          8.26769       -4.70398        2.07057
H          6.78571       -5.64482        3.33865
H          9.52651       -3.65155        0.65944
H          9.10727       -5.06768        2.66762
C          0.34392        7.12162        1.07448
C         -0.64672        8.11577        0.84932
C          1.24565        7.21880        2.14213
C         -0.71583        9.22959        1.69874
C          1.15471        8.33677        2.97259
H          1.99294        6.44558        2.32695
C          0.18827        9.33664        2.75457
H         -1.47221       10.00165        1.53632
H          1.84865        8.43354        3.81150
H          0.14522       10.19997        3.42273
C         -0.86650        6.44487       -0.72314
C         -1.36988        5.76504       -1.83981
C         -1.41870        7.68436       -0.29984
C         -2.44690        6.33597       -2.51943
H         -0.93530        4.82193       -2.17449
C         -2.50124        8.23571       -1.00059
C         -3.01258        7.55671       -2.10564
H         -2.85599        5.82258       -3.39340
H         -2.93534        9.18801       -0.68552
H         -3.85603        7.97563       -2.65953
C          1.57579       -2.31031       -0.14909
C          2.97472       -2.20115       -0.19247
C          0.98121       -3.58345       -0.15095
C          3.77519       -3.34679       -0.26001
H          3.43165       -1.21273       -0.16543
C          1.78055       -4.72526       -0.20860
H         -0.10502       -3.66117       -0.10873
C          3.17154       -4.61480       -0.27416
H          1.31632       -5.71427       -0.21730
H          3.79693       -5.50689       -0.34477
C         -2.78957       -0.21538        0.12523
C         -3.59207        0.93549        0.20235
C         -3.39643       -1.48126        0.11400
C         -4.97950        0.81307        0.27982
H         -3.11493        1.91531        0.20216
C         -4.78760       -1.60324        0.20130
H         -2.77144       -2.36936        0.02952
C         -5.58083       -0.44771        0.29085
H         -5.60159        1.70874        0.34715
H         -6.66477       -0.54542        0.37695
C          1.20692        2.52448       -0.07413
C          2.60126        2.64737       -0.19732
C          0.41887        3.68066        0.03986
C          3.18978        3.91197       -0.21734
H          3.20761        1.74553       -0.27970
C          1.00933        4.94887        0.01074
H         -0.65910        3.57940        0.15901
C          2.40263        5.06223       -0.12468
H          4.27338        4.00598       -0.32076
H          2.85970        6.05287       -0.16509
