120
	Energy: -2620082.5918134
C         -1.27529       -0.32163       -0.14194
C          0.91101       -0.94769       -0.05006
C          0.36200        1.25953       -0.13747
N          1.32214        0.32713       -0.07702
N         -0.37726       -1.31405       -0.08051
N         -0.94727        0.97688       -0.17202
C          1.97732        6.81799       -0.26793
C          3.21094        7.33613       -0.61762
S          0.87274        8.10943        0.14744
C          3.26911        8.75517       -0.58839
H          4.04765        6.71194       -0.93240
C          2.08073        9.33300       -0.20316
H          4.14826        9.34248       -0.85560
C         -6.89470       -1.71033       -0.29416
C         -7.95916       -0.91454       -0.67637
S         -7.46400       -3.29225        0.19094
C         -9.22428       -1.55066       -0.56387
H         -7.83640        0.10759       -1.03529
C         -9.13538       -2.84395       -0.10159
H        -10.17635       -1.07897       -0.80948
C          4.91876       -5.11805        0.22438
C          4.74854       -6.44085        0.58999
S          6.59073       -4.81473       -0.19305
C          5.93663       -7.21625        0.51844
H          3.78912       -6.84916        0.90847
C          7.02859       -6.48800        0.10440
H          5.99595       -8.27835        0.75864
N          8.34937       -6.92439       -0.03218
N          1.80432       10.69136       -0.02638
N        -10.17267       -3.76223        0.08334
C          9.17541       -7.35968        1.01567
C         10.44859       -7.69925        0.48782
C          8.89151       -7.46386        2.38086
C         11.45049       -8.16277        1.35271
C          9.90697       -7.92553        3.22036
H          7.91120       -7.19227        2.77609
C         11.17328       -8.27463        2.71497
H         12.43629       -8.43018        0.96394
H          9.71217       -8.01602        4.29204
H         11.94561       -8.63463        3.39878
C          9.08496       -6.97445       -1.22535
C         10.39111       -7.45312       -0.94200
C          8.68523       -6.64853       -2.52548
C         11.31269       -7.59955       -1.98867
C          9.62232       -6.80227       -3.54883
H          7.67814       -6.28363       -2.73346
C         10.92302       -7.27147       -3.28703
H         12.32237       -7.96718       -1.78913
H          9.33651       -6.55357       -4.57402
H         11.63233       -7.38019       -4.11090
C          0.86565       11.44557       -0.74592
C          0.87031       12.77750       -0.25468
C          0.03335       11.05143       -1.79866
C          0.01432       13.72691       -0.83092
C         -0.80983       12.01574       -2.35383
H          0.03969       10.02617       -2.17201
C         -0.82291       13.33971       -1.87703
H          0.00498       14.75690       -0.46565
H         -1.47130       11.73406       -3.17703
H         -1.49517       14.07000       -2.33357
C          2.40633       11.52726        0.92712
C          3.38160       11.22167        1.88139
C          1.85364       12.82959        0.81239
C          3.80832       12.24987        2.72386
H          3.79316       10.21450        1.96570
C          2.30152       13.84510        1.66959
C          3.27820       13.54950        2.62027
H          4.56926       12.03823        3.47937
H          1.88821       14.85406        1.59482
H          3.63536       14.33217        3.29372
C        -10.56633       -4.33124        1.30343
C        -10.06401       -4.10367        2.58883
C        -11.63969       -5.23006        1.06794
C        -10.65102       -4.80086        3.64636
H         -9.24031       -3.40879        2.76005
C        -12.21221       -5.91671        2.14820
C        -11.71297       -5.69912        3.43218
H        -10.27679       -4.64266        4.66099
H        -13.03953       -6.61207        1.98560
H        -12.14986       -6.22899        4.28192
C        -10.97979       -4.29442       -0.93412
C        -10.94887       -4.04448       -2.30955
C        -11.90375       -5.20610       -0.35963
C        -11.87066       -4.71976       -3.11165
H        -10.22849       -3.34730       -2.74077
C        -12.82073       -5.86964       -1.18761
C        -12.79984       -5.62140       -2.55985
H        -11.86798       -4.54339       -4.19031
H        -13.54031       -6.57398       -0.76270
H        -13.50932       -6.13212       -3.21520
C         -2.71353       -0.68086       -0.17847
C         -3.70323        0.31675       -0.23779
C         -3.11993       -2.02604       -0.15234
C         -5.05174       -0.01906       -0.26749
H         -3.39443        1.36223       -0.24970
C         -4.46908       -2.36155       -0.19047
H         -2.35827       -2.80477       -0.10940
C         -5.46819       -1.36758       -0.24875
H         -5.79713        0.77810       -0.28685
H         -4.75422       -3.41652       -0.19017
C          0.77132        2.68425       -0.16848
C          2.13061        3.04352       -0.13083
C         -0.18985        3.70782       -0.23336
C          2.51496        4.37913       -0.15575
H          2.88058        2.25446       -0.07182
C          0.19524        5.04375       -0.26475
H         -1.24524        3.43663       -0.26546
C          1.55628        5.41254       -0.22840
H          3.57623        4.62831       -0.09881
H         -0.57320        5.81760       -0.33405
C          1.94004       -2.01327        0.01752
C          1.57046       -3.37001        0.04747
C          3.30773       -1.69128        0.05112
C          2.53475       -4.36943        0.10665
H          0.51137       -3.62631        0.01321
C          4.27172       -2.69147        0.11851
H          3.60151       -0.64167        0.03126
C          3.91001       -4.05451        0.14791
H          2.21793       -5.41397        0.10219
H          5.32670       -2.41012        0.16470
