60
	Energy: -1648879.3337242
C          1.14141       -0.65156       -0.04129
C         -1.13496       -0.66277       -0.04130
C         -0.00649        1.31422       -0.04133
N         -1.18466        0.67623       -0.04127
N          0.00664       -1.36410       -0.04129
N          1.17796        0.68776       -0.04144
C         -0.01377        2.79680       -0.04163
C          1.18997        3.52261       -0.04364
C         -1.22539        3.51103       -0.03787
C          1.18169        4.91330       -0.04775
H          2.13312        2.97585       -0.04963
C         -1.23279        4.90112       -0.03411
H         -2.16251        2.95395       -0.02799
C         -0.02875        5.63779       -0.04339
H          2.13288        5.45076       -0.07043
H         -2.18847        5.42785       -0.00477
C         -2.41531       -1.41032       -0.04179
C         -2.42811       -2.81674       -0.03925
C         -3.64569       -0.73067       -0.04280
C         -3.62834       -3.51807       -0.03575
H         -1.47716       -3.34987       -0.03011
C         -4.84601       -1.43305       -0.04710
H         -3.64362        0.35950       -0.04790
C         -4.86827       -2.84357       -0.04402
H         -3.60683       -4.60911       -0.00728
H         -5.78705       -0.87796       -0.06901
C          2.42900       -1.38656       -0.04149
C          3.65337       -0.69439       -0.03890
C          2.45572       -2.79193       -0.04221
C          4.86090       -1.38305       -0.03513
H          3.63956        0.39573       -0.02998
C          3.66422       -3.48013       -0.04623
H          1.51064       -3.33535       -0.04724
C          4.89688       -2.79412       -0.04317
H          5.79492       -0.81874       -0.00675
H          3.65402       -4.57264       -0.06781
C         -0.05006        7.10515       -0.05283
C         -1.08525        7.95229       -0.40477
S          1.34966        8.04204        0.42657
C         -0.75489        9.33259       -0.29607
H         -2.05287        7.59252       -0.75624
C          0.53082        9.53522        0.14144
H         -1.44286       10.14427       -0.53766
H          1.04324       10.48030        0.31613
C          6.17831       -3.50932       -0.05272
C          7.42931       -3.03669       -0.40594
S          6.29019       -5.18948        0.42828
C          8.45961       -4.01282       -0.29695
H          7.60130       -2.01917       -0.75853
C          7.99255       -5.22716        0.14208
H          9.50636       -3.82307       -0.53941
H          8.55495       -6.14328        0.31731
C         -6.12844       -3.59565       -0.05375
C         -6.34514       -4.91455       -0.40958
S         -7.63872       -2.85341        0.43091
C         -7.70553       -5.31891       -0.29968
H         -5.55042       -5.57144       -0.76480
C         -8.52300       -4.30818        0.14269
H         -8.06498       -6.31973       -0.54390
H         -9.59735       -4.33750        0.31926
