60
	Energy: -1648877.0287564
C          1.19726        0.54092       -0.00056
C         -0.12987       -1.30767       -0.00116
C         -1.06723        0.76595       -0.00163
N         -1.24175       -0.56182       -0.00122
N          1.10727       -0.79491       -0.00026
N          0.13462        1.35593       -0.00102
C         -2.27453        1.63431       -0.00204
C         -2.14502        3.03312       -0.05224
C         -3.55314        1.06030        0.03621
C         -3.28739        3.83247       -0.06077
H         -1.14851        3.47273       -0.08825
C         -4.71302        1.85500        0.03950
H         -3.62848       -0.02629        0.04817
C         -4.55710        3.25499       -0.01043
H         -3.19076        4.92030       -0.09895
C         -0.27820       -2.78740       -0.00149
C          0.85829       -3.60765        0.03528
C         -1.55439       -3.37472       -0.05032
C          0.75011       -5.00949        0.03832
H          1.83697       -3.12955        0.04610
C         -1.67539       -4.76372       -0.05887
H         -2.43344       -2.73157       -0.08525
C         -0.54032       -5.57452       -0.01006
H         -2.66582       -5.22400       -0.09591
C          2.55290        1.15236        0.00053
C          2.69493        2.54672        0.03695
C          3.69971        0.34081       -0.04629
C          3.96303        3.15398        0.04163
H          1.79152        3.15521        0.04628
C          4.96312        0.93054       -0.05325
H          3.58231       -0.74207       -0.08078
C          5.09766        2.31896       -0.00481
H          5.85701        0.30295       -0.08871
C         -6.04230        1.22723        0.10040
C         -6.38380       -0.02393        0.57640
S         -7.47010        2.05681       -0.47952
C         -7.77668       -0.30854        0.48226
H         -5.65564       -0.71246        1.00687
C         -8.49203        0.72581       -0.06735
H         -8.23096       -1.24301        0.81547
H         -9.56308        0.78103       -0.25703
C          4.08377        4.61916        0.10033
C          3.16986        5.54127        0.57266
S          5.51734        5.43997       -0.47784
C          3.61994        6.88971        0.47716
H          2.20851        5.25566        1.00143
C          4.87461        6.99116       -0.06983
H          3.03700        7.75090        0.80755
H          5.45832        7.89081       -0.25976
C          1.95855       -5.84672        0.09727
C          3.21353       -5.51692        0.57150
S          1.95334       -7.49779       -0.48329
C          4.15643       -6.58073        0.47550
H          3.44628       -4.54218        1.00196
C          3.61764       -7.71727       -0.07375
H          5.19334       -6.50691        0.80716
H          4.10517       -8.67230       -0.26453
H         -0.65574       -6.66123        0.00576
H         -5.44046        3.89836        0.00548
H          6.09646        2.76238        0.01232
