90
	Energy: -2185421.2273717
C         -0.89600        0.95551        0.03744
C         -0.37873       -1.25291        0.02837
C          1.27300        0.29916       -0.05995
N          0.93492       -0.99912       -0.03802
N         -1.33291       -0.31045        0.06856
N          0.39624        1.31136       -0.02379
C          2.69221        0.63018       -0.12637
C          3.76373       -0.23852       -0.19665
S          3.20889        2.29414       -0.14639
C          5.01140        0.42497       -0.29606
H          3.62756       -1.31973       -0.19749
C          4.88361        1.80168       -0.29189
H          5.97457       -0.07786       -0.38548
C         -1.89236        2.02041        0.07767
C         -1.67847        3.38441        0.03877
S         -3.58951        1.63615        0.16666
C         -2.87942        4.13570        0.05157
H         -0.67572        3.80716       -0.01895
C         -4.00616        3.33655        0.10926
H         -2.92973        5.22371        0.00387
C         -0.80144       -2.64888        0.05673
C         -2.08769       -3.14441        0.14493
S          0.37987       -3.92838       -0.00126
C         -2.13577       -4.55933        0.19551
H         -2.95483       -2.48614        0.19302
C         -0.88088       -5.13665        0.13630
H         -3.05064       -5.14480        0.28930
N         -0.58055       -6.49962        0.11776
N          5.91320        2.74327       -0.32976
N         -5.33497        3.75771        0.18159
C          0.29047       -7.17364        0.99024
C          0.31953       -8.54856        0.63909
C          1.02751       -6.67664        2.07058
C          1.11431       -9.43447        1.38005
C          1.81103       -7.57938        2.79194
H          0.99621       -5.62079        2.34258
C          1.85878       -8.94380        2.45223
H          1.14693      -10.49579        1.12155
H          2.39709       -7.21488        3.63934
H          2.48309       -9.62348        3.03694
C         -1.10512       -7.43385       -0.79208
C         -0.56897       -8.71407       -0.49668
C         -1.98733       -7.23564       -1.85922
C         -0.94036       -9.81576       -1.28044
C         -2.33961       -8.34822       -2.62559
H         -2.38452       -6.24627       -2.09035
C         -1.82692       -9.62706       -2.34016
H         -0.53677      -10.80824       -1.06500
H         -3.02722       -8.21933       -3.46527
H         -2.12477      -10.47751       -2.95790
C          6.04460        3.79934       -1.24729
C          7.22768        4.52389       -0.94758
C          5.22483        4.14724       -2.32632
C          7.58338        5.62467       -1.73958
C          5.60107        5.24746       -3.09909
H          4.32076        3.58295       -2.55868
C          6.76553        5.98250       -2.81086
H          8.49136        6.19219       -1.52100
H          4.97597        5.53986       -3.94654
H          7.03081        6.83899       -3.43508
C          7.00236        2.79067        0.55761
C          7.29264        1.96988        1.65232
C          7.83733        3.88172        0.20251
C          8.44742        2.24965        2.38547
H          6.63884        1.14174        1.92932
C          8.99255        4.14023        0.95389
C          9.29315        3.32002        2.04086
H          8.69597        1.62291        3.24565
H          9.64617        4.97610        0.69234
H         10.19080        3.51035        2.63379
C         -5.85549        4.63923        1.14478
C         -5.21297        5.25719        2.22258
C         -7.23946        4.82816        0.89463
C         -5.97797        6.08494        3.04650
H         -4.15192        5.09621        2.41830
C         -7.98499        5.66625        1.73590
C         -7.34876        6.29299        2.80688
H         -5.49913        6.57899        3.89567
H         -9.05152        5.82253        1.55590
H         -7.91834        6.94900        3.46931
C         -6.37801        3.37879       -0.68010
C         -6.34672        2.53916       -1.79877
C         -7.57228        4.02587       -0.26829
C         -7.53969        2.34367       -2.49721
H         -5.42513        2.05002       -2.11692
C         -8.75685        3.81310       -0.98736
C         -8.73454        2.96991       -2.09782
H         -7.54110        1.69082       -3.37368
H         -9.68418        4.30430       -0.68230
H         -9.65110        2.79475       -2.66601
