%chk=Tr-Cz-TD-DFT-TRIPLET.chk
# td=(triplets,nstates=10) wb97xd/def2SVP pop=full iop(9/40=3) GFINPUT

Title Card Required

0 1
 C                 -0.62236200    1.11813600   -0.14814000
 C                 -0.62234200   -1.11814500    0.14813700
 C                  1.31674800    0.00001200   -0.00000100
 N                  0.70984100   -1.17466800    0.11245800
 N                 -1.32910300   -0.00001100    0.00000000
 N                  0.70982100    1.17468300   -0.11246100
 N                 -1.30929800    2.29506500   -0.36011800
 N                 -1.30925700   -2.29508600    0.36011700
 N                  2.70575900    0.00002400   -0.00000200
 C                 -0.77804700   -3.60617600    0.23058000
 C                 -1.84456200   -4.52513600    0.26593500
 C                  0.53996200   -4.05173000    0.10538000
 C                 -1.60925400   -5.89389200    0.13442300
 C                  0.75579000   -5.42206600   -0.02486900
 H                  1.37146100   -3.35606600    0.13157700
 C                 -0.30135200   -6.33918900   -0.02029700
 H                 -2.44168900   -6.60011600    0.16065100
 H                  1.78268500   -5.78133000   -0.12134300
 H                 -0.09613900   -7.40646300   -0.12354700
 C                 -2.70682600   -2.41152100    0.57442100
 C                 -3.65920800   -1.44570300    0.90704200
 C                 -3.06365700   -3.77005600    0.48991900
 C                 -4.97609700   -1.86152400    1.08864000
 H                 -3.38634900   -0.40267300    1.02948700
 C                 -4.38827800   -4.16951800    0.67188900
 C                 -5.34746600   -3.20525000    0.95966100
 H                 -5.72973500   -1.11371900    1.34495200
 H                 -4.65955000   -5.22487800    0.60155700
 H                 -6.38916700   -3.49760300    1.10540500
 C                  3.52629700   -0.95998600   -0.61517700
 C                  4.87325600   -0.60914900   -0.39489700
 C                  3.18376000   -2.05738100   -1.40789500
 C                  5.89728000   -1.39064800   -0.93531900
 C                  4.21888600   -2.82233200   -1.93692700
 H                  2.14452300   -2.30831700   -1.61082500
 C                  5.56346100   -2.50296000   -1.69897900
 H                  6.94249400   -1.12426700   -0.76482000
 H                  3.97192800   -3.68834500   -2.55483300
 H                  6.35092500   -3.12600800   -2.12722800
 C                  3.52628200    0.96004600    0.61517200
 C                  3.18372900    2.05743600    1.40789100
 C                  4.87324700    0.60923100    0.39489200
 C                  4.21884400    2.82240200    1.93692300
 H                  2.14448900    2.30835500    1.61082200
 C                  5.89725900    1.39074400    0.93531400
 C                  5.56342300    2.50305100    1.69897400
 H                  3.97187300    3.68841100    2.55482900
 H                  6.94247700    1.12438000    0.76481400
 H                  6.35087800    3.12611100    2.12722300
 C                 -0.77811200    3.60616400   -0.23057500
 C                 -1.84464300    4.52510500   -0.26592800
 C                  0.53988900    4.05174100   -0.10537200
 C                 -1.60936100    5.89386400   -0.13441100
 C                  0.75569200    5.42208100    0.02488300
 H                  1.37140000    3.35609200   -0.13157000
 C                 -0.30146700    6.33918400    0.02031200
 H                 -2.44180800    6.60007400   -0.16063800
 H                  1.78258000    5.78136300    0.12135900
 H                 -0.09627300    7.40646200    0.12356600
 C                 -2.70686900    2.41147600   -0.57442400
 C                 -3.65923300    1.44564100   -0.90705100
 C                 -3.06372400    3.77000400   -0.48991700
 C                 -4.97612900    1.86143800   -1.08865000
 H                 -3.38635400    0.40261600   -1.02949800
 C                 -4.38835300    4.16944200   -0.67188900
 C                 -5.34752300    3.20515700   -0.95966600
 H                 -5.72975300    1.11362100   -1.34496700
 H                 -4.65964400    5.22479700   -0.60155400
 H                 -6.38922800    3.49749200   -1.10541200

 

