%chk=Tr-Cz-OPT-FREQ.chk
%mem=5500MB
%nprocshared=24
# opt=tight freq wb97xd/def2SVP geom=connectivity

Title Card Required

0 1
 C                 -0.63603400    1.12723800   -0.10701100
 C                 -0.63602300   -1.12723300    0.10699800
 C                  1.30929900    0.00001200    0.00000200
 N                  0.70538600   -1.18983400    0.05433300
 N                 -1.35278700   -0.00000200   -0.00001000
 N                  0.70537400    1.18985100   -0.05433800
 N                 -1.32515200    2.31361600   -0.30466600
 N                 -1.32513200   -2.31362000    0.30462800
 N                  2.70795800    0.00002000    0.00001700
 C                 -0.80347800   -3.63292200    0.13551600
 C                 -1.85830200   -4.55551200    0.32066700
 C                  0.48788900   -4.07721500   -0.16514200
 C                 -1.63247100   -5.92869600    0.18535900
 C                  0.69314700   -5.45338900   -0.29564600
 H                  1.30758000   -3.38573200   -0.27067000
 C                 -0.35052600   -6.37520200   -0.12842000
 H                 -2.44582700   -6.63430100    0.32694700
 H                  1.69338700   -5.81002500   -0.52299900
 H                 -0.15623000   -7.43812500   -0.23482200
 C                 -2.70222900   -2.43245800    0.66077100
 C                 -3.63275600   -1.46237500    1.04629300
 C                 -3.04810200   -3.80246400    0.66094900
 C                 -4.91873600   -1.88688900    1.39047700
 H                 -3.37329000   -0.41619500    1.07942200
 C                 -4.34252500   -4.20747800    1.00172000
 C                 -5.28069300   -3.24178300    1.36020200
 H                 -5.64968300   -1.14185000    1.69040700
 H                 -4.60555800   -5.26114400    0.99877200
 H                 -6.28988200   -3.53815200    1.62960700
 C                  3.53304400   -0.87479100   -0.73756700
 C                  4.88501800   -0.55005900   -0.47234200
 C                  3.18903600   -1.85983300   -1.66676200
 C                  5.90884100   -1.25117100   -1.12061300
 C                  4.22621900   -2.54406100   -2.30282300
 H                  2.15553700   -2.08762600   -1.89290700
 C                  5.57366800   -2.25231700   -2.03003800
 H                  6.94955500   -1.01057000   -0.92387000
 H                  3.98102100   -3.31561100   -3.02668500
 H                  6.35697000   -2.80468100   -2.53995200
 C                  3.53301800    0.87482200    0.73764400
 C                  3.18897100    1.85987800    1.66681000
 C                  4.88500100    0.55006500    0.47249800
 C                  4.22612900    2.54408700    2.30293100
 H                  2.15546200    2.08770200    1.89288200
 C                  5.90879900    1.25116200    1.12082400
 C                  5.57359000    2.25231600    2.03022800
 H                  3.98090500    3.31564900    3.02677200
 H                  6.94951900    1.01054500    0.92414000
 H                  6.35687200    2.80466600    2.54018700
 C                 -0.80348000    3.63292700   -0.13566900
 C                 -1.85832000    4.55550800   -0.32077300
 C                  0.48792200    4.07723500    0.16481800
 C                 -1.63247200    5.92870000   -0.18557900
 C                  0.69319700    5.45341800    0.29520700
 H                  1.30761800    3.38575100    0.27030600
 C                 -0.35049100    6.37522200    0.12803100
 H                 -2.44584000    6.63429800   -0.32713100
 H                  1.69346400    5.81006700    0.52242400
 H                 -0.15618000    7.43815100    0.23433800
 C                 -2.70227700    2.43243700   -0.66070400
 C                 -3.63283200    1.46233800   -1.04611900
 C                 -3.04815200    3.80244300   -0.66091100
 C                 -4.91884000    1.88683700   -1.39021700
 H                 -3.37336400    0.41615800   -1.07923100
 C                 -4.34260200    4.20744200   -1.00159200
 C                 -5.28079800    3.24173100   -1.35996200
 H                 -5.64980800    1.14178500   -1.69006300
 H                 -4.60563400    5.26110700   -0.99866400
 H                 -6.29000800    3.53808900   -1.62930000

 1 5 1.5 6 1.5 7 1.0
 2 4 1.5 5 1.5 8 1.0
 3 4 1.5 6 1.5 9 1.0
 4
 5
 6
 7 50 1.0 60 1.0
 8 10 1.0 20 1.0
 9 30 1.0 40 1.0
 10 11 1.5 12 1.5
 11 13 1.5 22 1.0
 12 14 1.5 15 1.0
 13 16 1.5 17 1.0
 14 16 1.5 18 1.0
 15
 16 19 1.0
 17
 18
 19
 20 21 1.5 22 1.5
 21 23 1.5 24 1.0
 22 25 1.5
 23 26 1.5 27 1.0
 24
 25 26 1.5 28 1.0
 26 29 1.0
 27
 28
 29
 30 31 1.5 32 1.5
 31 33 1.5 42 1.0
 32 34 1.5 35 1.0
 33 36 1.5 37 1.0
 34 36 1.5 38 1.0
 35
 36 39 1.0
 37
 38
 39
 40 41 1.5 42 1.5
 41 43 1.5 44 1.0
 42 45 1.5
 43 46 1.5 47 1.0
 44
 45 46 1.5 48 1.0
 46 49 1.0
 47
 48
 49
 50 51 1.5 52 1.5
 51 53 1.5 62 1.0
 52 54 1.5 55 1.0
 53 56 1.5 57 1.0
 54 56 1.5 58 1.0
 55
 56 59 1.0
 57
 58
 59
 60 61 1.5 62 1.5
 61 63 1.5 64 1.0
 62 65 1.5
 63 66 1.5 67 1.0
 64
 65 66 1.5 68 1.0
 66 69 1.0
 67
 68
 69

