%oldchk=\home\natrosa\teste-TM\Tr-Ph-p-Th-Cz-OPT-ANION-cont-2.chk
%chk=G:\Meu Drive\POS-DOC-IME\TRIAZINA\wb97xd\Tr-Ph-p-Th-Cz\Tr-Ph-p-Th-Cz-OPT-ANION-FREQ.chk
%mem=5500MB
# opt freq wb97xd/def2SVP nosymm guess=read int=ultrafine scf=yqc

Title Card Required

-1 2
 C                 -1.18477900   -0.56715600    0.01811300
 C                  0.18146300    1.25877000   -0.08003400
 C                  1.07929300   -0.79370800    0.20014000
 N                  1.30535600    0.52989600    0.07533000
 N                 -1.04145200    0.78838100   -0.11463900
 N                 -0.09346300   -1.37879000    0.18009000
 C                  5.73836200   -4.15005900    0.92043300
 C                  6.92922500   -3.80791000    1.52062900
 S                  5.78276100   -5.79205200    0.36635000
 C                  7.87608400   -4.86686900    1.54650400
 H                  7.10380400   -2.82519400    1.95826100
 C                  7.40149200   -6.01075200    0.96395900
 H                  8.87183300   -4.80432300    1.98566400
 C                 -6.43301600   -2.89779200   -0.12377000
 C                 -6.79456400   -4.23354700    0.01325900
 S                 -7.86264500   -1.92373900   -0.37397400
 C                 -8.18753800   -4.46453700   -0.08238900
 H                 -6.06744800   -5.02681200    0.18028800
 C                 -8.90927600   -3.31873400   -0.29136700
 H                 -8.66043400   -5.44417300   -0.00119900
 C                  0.83045900    6.97683100   -0.69163700
 C                 -0.00886800    7.84750100   -1.34959600
 S                  2.18729600    7.82415600   -0.02304600
 C                  0.43851300    9.19584300   -1.32335500
 H                 -0.91269500    7.51721500   -1.86110800
 C                  1.61791300    9.34543100   -0.64559500
 H                 -0.07650200   10.03415800   -1.79266900
 N                  2.34213200   10.52641500   -0.44145100
 N                  8.06558200   -7.23537100    0.82208500
 N                -10.29910300   -3.19302500   -0.43410900
 C                  3.31859300   11.03491600   -1.29072900
 C                  3.84050700   12.22516300   -0.73778700
 C                  3.77205900   10.52194800   -2.50706800
 C                  4.84037200   12.92064500   -1.42492900
 C                  4.76806700   11.23092100   -3.16943400
 H                  3.35730300    9.59784600   -2.91361600
 C                  5.29858800   12.41868700   -2.63807800
 H                  5.25522700   13.84325700   -1.01254800
 H                  5.14560400   10.85447500   -4.12282600
 H                  6.08003900   12.95011700   -3.18510500
 C                  2.23335400   11.36752400    0.66047700
 C                  3.14236200   12.43905700    0.51736300
 C                  1.39305400   11.25194300    1.76907000
 C                  3.20772700   13.42162700    1.51022600
 C                  1.47884600   12.24063300    2.74300000
 H                  0.70135800   10.41278500    1.86176400
 C                  2.37445900   13.31623100    2.61838400
 H                  3.90455900   14.25760400    1.41575500
 H                  0.83592600   12.17761100    3.62383100
 H                  2.41540300   14.07493000    3.40262000
 C                  7.98212600   -8.31083800    1.69951900
 C                  8.77523400   -9.37184700    1.20957000
 C                  7.26137700   -8.41322200    2.89048300
 C                  8.84938400  -10.56527400    1.93464300
 C                  7.35034200   -9.61068100    3.59157400
 H                  6.65078400   -7.58234100    3.24827300
 C                  8.13557400  -10.67747600    3.12267800
 H                  9.45799500  -11.39631900    1.57091900
 H                  6.79619200   -9.72308400    4.52615400
 H                  8.18217700  -11.60397800    3.69863800
 C                  8.89511400   -7.59130200   -0.23555700
 C                  9.26075700   -6.83712500   -1.35167400
 C                  9.36285400   -8.90885400   -0.03504000
 C                 10.11528300   -7.43120900   -2.27374000
 H                  8.88277800   -5.82248400   -1.48906200
 C                 10.22310600   -9.48274900   -0.97639200
 C                 10.59474100   -8.73939800   -2.09123100
 H                 10.41814000   -6.86783000   -3.15923400
 H                 10.59499700  -10.50045200   -0.83736300
 H                 11.26448900   -9.17495800   -2.83558300
 C                -10.99810100   -3.23112700   -1.63285600
 C                -10.50240000   -3.41386800   -2.92559100
 C                -12.37660100   -3.05112200   -1.37828900
 C                -11.42015500   -3.41572200   -3.96945500
 H                 -9.43228600   -3.54403000   -3.09613100
 C                -13.27975100   -3.05911000   -2.44641000
 C                -12.79581400   -3.24178800   -3.73707900
 H                -11.06295400   -3.55395900   -4.99266600
 H                -14.34887800   -2.92192100   -2.26751600
 H                -13.48876700   -3.24857500   -4.58122700
 C                -11.20639900   -2.97804000    0.59424300
 C                -10.96034300   -2.85798400    1.96369200
 C                -12.51095000   -2.88807700    0.05775800
 C                -12.05388000   -2.64685800    2.79536500
 H                 -9.94261800   -2.92474400    2.35226300
 C                -13.59465900   -2.67728800    0.91662700
 C                -13.35971400   -2.55804200    2.28190600
 H                -11.89335000   -2.54641300    3.87138100
 H                -14.60972200   -2.60583500    0.51862800
 H                -14.19579200   -2.39155500    2.96460000
 C                 -2.49034600   -1.14230100   -0.01442500
 C                 -2.69237300   -2.54709900    0.11954700
 C                 -3.65632300   -0.34121100   -0.18445400
 C                 -3.95189500   -3.09835600    0.08497000
 H                 -1.81621300   -3.18346700    0.25011000
 C                 -4.91224000   -0.90200100   -0.21826500
 H                 -3.53123300    0.73716100   -0.28878200
 C                 -5.11491500   -2.30067500   -0.08595900
 H                 -4.05133200   -4.18142800    0.18954400
 H                 -5.77634400   -0.24335300   -0.35024700
 C                  2.27779400   -1.66536600    0.37814600
 C                  3.56182500   -1.11062700    0.42112300
 C                  2.14113100   -3.05283000    0.50406000
 C                  4.67961000   -1.91991600    0.58628300
 H                  3.65859100   -0.02997700    0.31189900
 C                  3.25632200   -3.86241800    0.67545200
 H                  1.13585600   -3.47495500    0.47185900
 C                  4.54632300   -3.30971900    0.72229600
 H                  5.67513100   -1.46982900    0.58961100
 H                  3.12383200   -4.94133600    0.79408700
 C                  0.35262200    2.73403800   -0.22789600
 C                 -0.76006200    3.57168000   -0.37311900
 C                  1.62852200    3.30769100   -0.22423400
 C                 -0.60147600    4.94377000   -0.51088400
 H                 -1.75067000    3.11505200   -0.36478800
 C                  1.78964800    4.68088400   -0.37079100
 H                  2.48905100    2.64722700   -0.11332700
 C                  0.67819500    5.52317300   -0.51854500
 H                 -1.48434300    5.58170800   -0.59430800
 H                  2.79772400    5.10431800   -0.38965800

