%oldchk=C:\Users\User\Documents\TRIAZINAS\Tr-Ph-p-Th\Tr-Ph-para-Th-TD-DFT-OPT-S1.chk
%chk=Tr-Ph-para-Th-TD-DFT-OPT-S1.chk
%mem=5500MB
%nprocshared=24
# opt=(calcfc,tight) freq td=(nstates=10,root=2) wb97xd/def2SVP nosymm
guess=read scf=xqc

Vertical absorption

0 1
 C                 -0.93176600   -0.90393300   -0.09638400
 C                 -0.33936100    1.28779100   -0.12614700
 C                  1.26171700   -0.32217900   -0.12049800
 N                  0.97257300    0.97295800   -0.13282300
 N                 -1.32269400    0.36425000   -0.10768900
 N                  0.34724500   -1.30016200   -0.10254500
 C                  2.69252200   -0.71436100   -0.12666800
 C                  3.06087900   -2.06496100   -0.11146600
 C                  3.69980200    0.25918800   -0.15002300
 C                  4.39991700   -2.43161800   -0.11263400
 H                  2.27641900   -2.82185400   -0.09003700
 C                  5.03764000   -0.10783600   -0.16012400
 H                  3.41160300    1.31061700   -0.17128400
 C                  5.41481400   -1.46122800   -0.13609800
 H                  4.66468700   -3.49121900   -0.07769300
 H                  5.80625300    0.66595600   -0.20789500
 C                 -0.71037300    2.68643900   -0.13861900
 C                 -2.08406900    3.07771300   -0.13095900
 C                  0.28838800    3.70648000   -0.15828500
 C                 -2.43998700    4.39781200   -0.14186000
 H                 -2.83973600    2.29244500   -0.11589400
 C                 -0.06016000    5.02887100   -0.16932400
 H                  1.33437400    3.40047100   -0.16416900
 C                 -1.44178200    5.43791400   -0.16144100
 H                 -3.49666400    4.66825200   -0.13546100
 H                  0.72364000    5.79031200   -0.18446000
 C                 -1.97995200   -1.95354900   -0.07542800
 C                 -1.62982500   -3.30956300   -0.05619300
 C                 -3.33689800   -1.60744100   -0.07151700
 C                 -2.60975600   -4.29198600   -0.03052600
 H                 -0.57268600   -3.57665300   -0.05045000
 C                 -4.31647400   -2.59031800   -0.05505800
 H                 -3.60861400   -0.55164600   -0.09000600
 C                 -3.97293800   -3.95219300   -0.03457500
 H                 -2.31503500   -5.34216800    0.01400100
 H                 -5.36921000   -2.29792800   -0.07482500
 C                  6.83645500   -1.83518200   -0.12911600
 C                  7.90928000   -1.10286000    0.32582900
 S                  7.37222400   -3.36548300   -0.74944500
 C                  9.15358700   -1.77731200    0.17884300
 H                  7.80374100   -0.11685600    0.77891100
 C                  9.01417900   -3.01481000   -0.38831000
 H                 10.11323000   -1.36268500    0.48784300
 H                  9.79351800   -3.73993300   -0.61683400
 C                 -5.00063600   -5.00319700   -0.02315700
 C                 -4.90101200   -6.30053200   -0.47164500
 S                 -6.58773100   -4.70791200    0.61583300
 C                 -6.10084100   -7.04711600   -0.30478800
 H                 -3.99778300   -6.69985900   -0.93347900
 C                 -7.09998000   -6.31026100    0.27068300
 H                 -6.21903000   -8.08814100   -0.60574800
 H                 -8.11260400   -6.62746400    0.51433100
 C                 -1.81311800    6.79717600   -0.17207000
 C                 -3.11274400    7.37056400   -0.16662800
 S                 -0.59768500    8.08502500   -0.19532300
 C                 -3.09407900    8.76576000   -0.18061500
 H                 -4.02265200    6.77250300   -0.15297400
 C                 -1.80912800    9.29549500   -0.19688700
 H                 -3.98811000    9.38960900   -0.17914400
 H                 -1.53122300   10.34893100   -0.20972900

