%oldchk=G:\Meu Drive\POS-DOC-IME\TRIAZINA\wb97xd\Tr-Ph-m-Th\Tr-Ph-meta-Th-TD-DFT-TRIPLET.chk
%chk=Tr-Ph-meta-Th-TD-DFT-TRIPLET.chk
%mem=5500MB
%nprocshared=24
# td=(triplets,nstates=10) wb97xd nosymm guess=read def2svp

Title Card Required

0 1
 C                 -0.29277100    0.27643700   -0.16427400
 C                 -0.39269700   -1.98461900   -0.17182400
 C                 -2.30087500   -0.76741700   -0.17824300
 N                 -1.72515100   -1.96977400   -0.17828300
 N                  0.36072700   -0.88490500   -0.16414900
 N                 -1.62188300    0.37917200   -0.17088100
 C                 -3.78509400   -0.70211500   -0.18517700
 C                 -4.43928800    0.53474300   -0.21864600
 C                 -4.53279300   -1.88192300   -0.16992600
 C                 -5.82944700    0.57738800   -0.23235700
 H                 -3.84606700    1.44913600   -0.23713200
 C                 -5.93199200   -1.84963100   -0.17162000
 H                 -4.00091600   -2.83361200   -0.17201600
 C                 -6.57099100   -0.60090400   -0.20370000
 H                 -6.34473200    1.53958400   -0.25716700
 C                  0.29238300   -3.30294700   -0.17151200
 C                  1.68776900   -3.36144900   -0.14506700
 C                 -0.45217300   -4.48747200   -0.20924100
 C                  2.35858800   -4.58981800   -0.13972400
 H                  2.24678100   -2.42545500   -0.14405600
 C                  0.20522400   -5.71317100   -0.21561100
 H                 -1.54045500   -4.43033500   -0.23669100
 C                  1.59610100   -5.76706000   -0.17578600
 H                 -0.37085800   -6.64015500   -0.24344500
 C                  0.50653900    1.52867200   -0.15474700
 C                 -0.14023600    2.76658500   -0.13417600
 C                  1.90491000    1.47531500   -0.17790300
 C                  0.58867800    3.96129900   -0.12049800
 H                 -1.23030000    2.78302100   -0.14448000
 C                  2.63835500    2.65705700   -0.17596200
 H                  2.39847700    0.50353200   -0.20071700
 C                  1.98973400    3.88885400   -0.14216400
 H                  3.72940200    2.62118100   -0.19253600
 C                 -6.69718800   -3.10795100   -0.13118000
 C                 -6.32790800   -4.30872300    0.42664000
 S                 -8.27231700   -3.23218400   -0.84689300
 C                 -7.31726400   -5.32258400    0.28138600
 H                 -5.38166400   -4.45192900    0.94925000
 C                 -8.42590900   -4.88015000   -0.38632300
 H                 -7.21190500   -6.33793100    0.66377200
 H                 -9.32666000   -5.43822300   -0.63628700
 C                 -0.11720900    5.25366400   -0.07570000
 C                 -1.34704000    5.53117100    0.47198500
 S                  0.57162300    6.68500600   -0.77249500
 C                 -1.72725400    6.89659600    0.33422500
 H                 -1.95043600    4.77976700    0.98220400
 C                 -0.78213100    7.63981700   -0.31779400
 H                 -2.66260400    7.31099900    0.71056800
 H                 -0.81118300    8.70103800   -0.55914100
 C                  3.83053100   -4.62455700   -0.08829600
 C                  4.68296000   -3.70256300    0.47098600
 S                  4.72934300   -5.93142700   -0.79046400
 C                  6.05628600   -4.05489700    0.33759600
 H                  4.33135300   -2.80829100    0.98640800
 C                  6.23072400   -5.23994500   -0.32264100
 H                  6.88087800   -3.45496300    0.72275900
 H                  7.16552900   -5.74350600   -0.56316800
 H                  2.09832800   -6.73757400   -0.15806800
 H                 -7.66270700   -0.55139900   -0.19157500
 H                  2.57941900    4.80871000   -0.11792900

