%chk=Tr-Ph-meta-Th-OPT-FREQ.chk
%mem=5500MB
%nprocshared=24
# opt=tight freq wb97xd/def2SVP nosymm

Title Card Required

0 1
 C                 -0.29130179    0.29946067   -0.04261278
 C                 -0.39687828   -2.01391393   -0.04812918
 C                 -2.34797094   -0.76627114   -0.05065395
 N                 -1.73262707   -1.95390242   -0.05433511
 N                  0.32294076   -0.88785860   -0.04517958
 N                 -1.62766093    0.36143727   -0.04772012
 C                 -3.88576726   -0.69852508   -0.04841262
 C                 -4.53220780    0.54429137   -0.04636967
 C                 -4.63751692   -1.88047991   -0.04697711
 C                 -5.93254571    0.60558402   -0.04046940
 H                 -3.95647794    1.44604787   -0.04939125
 C                 -6.03732382   -1.82031638   -0.03997388
 H                 -4.14261531   -2.82921266   -0.05112332
 C                 -6.68511950   -0.57741796   -0.03675593
 H                 -6.42659656    1.55470119   -0.03829007
 C                  0.31393323   -3.37871059   -0.04263962
 C                  1.71346087   -3.43805479   -0.02837878
 C                 -0.43854646   -4.56040144   -0.05039715
 C                  2.36125522   -4.67993411   -0.01477461
 H                  2.28768279   -2.53465448   -0.02638426
 C                  0.20926593   -5.80312422   -0.03951504
 H                 -1.50728600   -4.51359518   -0.06405772
 C                  1.60966251   -5.86299475   -0.02093334
 H                 -0.36524837   -6.70596463   -0.04513132
 C                  0.54491007    1.59212022   -0.03244803
 C                 -0.08938560    2.84188004   -0.02552451
 C                  1.94387328    1.51446010   -0.02910421
 C                  0.67794821    4.01501558   -0.01056857
 H                 -1.15769362    2.89986254   -0.03140971
 C                  2.71042513    2.68618563   -0.01677175
 H                  2.42630176    0.55909724   -0.03574676
 C                  2.07755586    3.93668398   -0.00684914
 H                  3.77859934    2.62636749   -0.01461579
 C                 -6.85944786   -3.12206509   -0.03473142
 C                 -6.32363819   -4.37651944   -0.03952533
 S                 -8.62152380   -3.20407916   -0.02852988
 C                 -7.29105616   -5.40748239   -0.20622493
 H                 -5.27539692   -4.56684586    0.06097583
 C                 -8.56705709   -4.94171436   -0.33058809
 H                 -7.03954852   -6.44669023   -0.24249162
 H                 -9.41446299   -5.54455700   -0.58058681
 C                 -0.01292051    5.39094616    0.00229475
 C                 -1.36315125    5.58606074   -0.00283720
 S                  0.83369359    6.93848887    0.01940531
 C                 -1.73952855    6.95041626   -0.16269619
 H                 -2.07147484    4.78941664    0.09193186
 C                 -0.67706143    7.79793449   -0.28100506
 H                 -2.75774708    7.27825574   -0.19871248
 H                 -0.74935511    8.83706116   -0.52581761
 C                  3.89942365   -4.74358492    0.00825417
 C                  4.72240073   -3.65551354    0.01130032
 S                  4.84561447   -6.23196607    0.02951016
 C                  6.10002490   -3.98387242   -0.13762640
 H                  4.36597443   -2.65108760    0.10491717
 C                  6.33046056   -5.32305817   -0.25660661
 H                  6.87814506   -3.24970779   -0.16536906
 H                  7.27740797   -5.76017357   -0.49447308
 H                  2.10471755   -6.81143432   -0.01071107
 H                 -7.75386706   -0.53117312   -0.03156139
 H                  2.66287002    4.83226278    0.00326645

 1 5 1.5 6 1.5 25 1.0
 2 4 1.5 5 1.5 16 1.0
 3 4 1.5 6 1.5 7 1.0
 4
 5
 6
 7 8 1.5 9 1.5
 8 10 1.5 11 1.0
 9 12 1.5 13 1.0
 10 14 1.5 15 1.0
 11
 12 14 1.5 34 1.0
 13
 14 59 1.0
 15
 16 17 1.5 18 1.5
 17 19 1.5 20 1.0
 18 21 1.5 22 1.0
 19 23 1.5 50 1.0
 20
 21 23 1.5 24 1.0
 22
 23 58 1.0
 24
 25 26 1.5 27 1.5
 26 28 1.5 29 1.0
 27 30 1.5 31 1.0
 28 32 1.5 42 1.0
 29
 30 32 1.5 33 1.0
 31
 32 60 1.0
 33
 34 35 2.0 36 1.0
 35 37 1.5 38 1.0
 36 39 1.0
 37 39 2.0 40 1.0
 38
 39 41 1.0
 40
 41
 42 43 2.0 44 1.0
 43 45 1.5 46 1.0
 44 47 1.0
 45 47 2.0 48 1.0
 46
 47 49 1.0
 48
 49
 50 51 2.0 52 1.0
 51 53 1.5 54 1.0
 52 55 1.0
 53 55 2.0 56 1.0
 54
 55 57 1.0
 56
 57
 58
 59
 60

