%chk=Tr-Ph-meta-Cz-TD-DFT-OPT-FREQ-T1-cont-4.chk
%mem=5000MB
# opt=tight freq td=(triplets,root=1) wb97xd/def2SVP nosymm scf=qc
int=ultrafine

opt T1

0 1
 C                  0.92615100   -0.87372900    0.09770600
 C                 -1.27305200   -0.29478800    0.00242900
 C                  0.32329700    1.32018800    0.12760100
 N                 -0.96223000    1.02621300    0.05683600
 N                 -0.33435300   -1.27339600    0.02023500
 N                  1.30971300    0.40800700    0.15205900
 N                  2.25025700   -5.61072600   -0.06853600
 N                 -6.01855600    0.89595300   -0.17105700
 N                  3.83180000    4.76881100    0.28331900
 C                 -6.04097400    2.07242600   -0.93456100
 C                 -7.27265300    2.72908800   -0.72609700
 C                 -5.09433800    2.57199000   -1.83233000
 C                 -7.55430400    3.91674700   -1.40385800
 C                 -5.39642700    3.75638000   -2.49782200
 H                 -4.15226700    2.05636300   -2.01727800
 C                 -6.60817100    4.42938700   -2.28481000
 H                 -8.50553700    4.42963300   -1.24712200
 H                 -4.66997000    4.16677000   -3.20228000
 H                 -6.81088000    5.35836700   -2.82095800
 C                 -7.21998200    0.81366700    0.54141800
 C                 -7.61881700   -0.12642300    1.49513600
 C                 -8.02676500    1.92427600    0.21899100
 C                 -8.87257400    0.03646900    2.07722800
 H                 -6.96724800   -0.95053500    1.78844400
 C                 -9.27706500    2.07333000    0.82153300
 C                 -9.69879200    1.11894700    1.74214300
 H                 -9.21091100   -0.68797900    2.82091100
 H                 -9.90885500    2.93049000    0.57960300
 H                -10.67388300    1.22093100    2.22207600
 C                  4.78237200    4.25172900    1.15861000
 C                  6.04356000    4.81113500    0.85410800
 C                  4.61912200    3.35066200    2.21558500
 C                  7.16336000    4.45140400    1.61043000
 C                  5.74756700    3.00846000    2.95221700
 H                  3.64170000    2.93152300    2.45869100
 C                  7.01002400    3.54766500    2.65488200
 H                  8.14284300    4.87785200    1.38290900
 H                  5.64614700    2.30584300    3.78233800
 H                  7.87502300    3.25600100    3.25368800
 C                  4.46519500    5.65025600   -0.58715400
 C                  3.93368100    6.37798500   -1.65621800
 C                  5.84017800    5.70858100   -0.26643700
 C                  4.80225700    7.18192300   -2.38591000
 H                  2.87598700    6.31324900   -1.91573100
 C                  6.69328400    6.52514300   -1.01502800
 C                  6.16837100    7.26212600   -2.06985600
 H                  4.41122900    7.76051200   -3.22577200
 H                  7.75745600    6.57804300   -0.77472600
 H                  6.82172100    7.90468800   -2.66318700
 C                  2.76780000   -6.51364800   -0.99176700
 C                  2.14183100   -7.76783000   -0.81275000
 C                  3.72093200   -6.30977600   -1.99424600
 C                  2.49093100   -8.84149900   -1.63765100
 C                  4.05038900   -7.39243400   -2.80193700
 H                  4.18604100   -5.33433900   -2.14425600
 C                  3.44793900   -8.64909600   -2.62676800
 H                  2.01410400   -9.81544200   -1.50689000
 H                  4.79262300   -7.25893700   -3.59204400
 H                  3.73172500   -9.47795000   -3.27813100
 C                  1.29290300   -6.26452600    0.70092400
 C                  0.52237500   -5.77745100    1.76149700
 C                  1.19523900   -7.60789100    0.27384700
 C                 -0.35956500   -6.65880500    2.37671300
 H                  0.61054000   -4.74372700    2.09889600
 C                  0.30080700   -8.47478400    0.90928700
 C                 -0.47577600   -7.99415100    1.95673400
 H                 -0.97264300   -6.30232200    3.20746900
 H                  0.21760700   -9.51500700    0.58673100
 H                 -1.17915700   -8.65869600    2.46224100
 C                  0.71794400    2.75259100    0.19129300
 C                  2.07177000    3.09762700    0.18242300
 C                 -0.25270600    3.75886800    0.25457300
 C                  2.45791500    4.43461800    0.26993600
 H                  2.82254300    2.31121200    0.10554300
 C                  0.13521500    5.09320000    0.32910800
 H                 -1.30635300    3.47827700    0.25020800
 C                  1.48572200    5.43635600    0.35207600
 H                 -0.62198600    5.87746100    0.38859300
 H                  1.79560200    6.47941900    0.44014700
 C                 -2.64118000   -0.67169900   -0.08077800
 C                 -3.03443100   -2.11352600   -0.15927600
 C                 -3.67823000    0.31719200   -0.06628800
 C                 -4.35930700   -2.46235800   -0.23701200
 H                 -2.24000500   -2.85825900   -0.15511100
 C                 -4.99444100   -0.04820600   -0.12948400
 H                 -3.38974500    1.36252800    0.03223400
 C                 -5.37706300   -1.48122400   -0.23590700
 H                 -4.63782500   -3.51524100   -0.31652700
 H                 -6.41909200   -1.74114800   -0.42041300
 C                  1.98713900   -1.91493300    0.13830500
 C                  3.32872600   -1.56171200    0.32049900
 C                  1.63998500   -3.26057800   -0.00880700
 C                  4.30560900   -2.55249300    0.37322400
 H                  3.59027100   -0.50856900    0.42625300
 C                  2.61811300   -4.25089400    0.05741700
 H                  0.59649300   -3.52795700   -0.17566800
 C                  3.95651700   -3.89592600    0.25680500
 H                  5.35114400   -2.27701800    0.52425700
 H                  4.71473100   -4.67837100    0.32562500

