%oldchk=\home\natrosa\Tr\Tr-Ph-para-Th-OPT-FREQ.chk
%chk=Tr-Ph-para-Th-TD-DFT-TRIPLET.chk
%mem=5500MB
%nprocshared=24
# td=triplets wb97xd nosymm guess=read def2svp

Title Card Required

0 1
 C                 -0.92535100   -0.92360400   -0.05513600
 C                 -0.33468400    1.26181800   -0.05723500
 C                  1.26257800   -0.34242700   -0.05252400
 N                  0.96335900    0.95689000   -0.05482300
 N                 -1.31030000    0.35302600   -0.05762100
 N                  0.34949500   -1.31418300   -0.05269000
 C                  2.69417700   -0.72909600   -0.04976800
 C                  3.06646400   -2.07807500   -0.05276400
 C                  3.69501700    0.24985300   -0.04139200
 C                  4.40724300   -2.43889300   -0.05470300
 H                  2.28669000   -2.84013700   -0.06231100
 C                  5.03494500   -0.11199800   -0.03313600
 H                  3.40367700    1.30056500   -0.02976300
 C                  5.41663100   -1.46335400   -0.04548300
 H                  4.67717000   -3.49729700   -0.08015500
 H                  5.80080700    0.66493900    0.00357600
 C                 -0.71536200    2.69502200   -0.05977900
 C                 -2.06346800    3.07275400   -0.05417500
 C                  0.26708300    3.69157900   -0.06511700
 C                 -2.41954000    4.41426700   -0.05079200
 H                 -2.82802800    2.29540700   -0.04079700
 C                 -0.09028900    5.03324800   -0.07194500
 H                  1.31683800    3.39687700   -0.07258400
 C                 -1.43971800    5.42009400   -0.06536600
 H                 -3.47524400    4.68965800   -0.01632800
 H                  0.69160800    5.79588000   -0.09930900
 C                 -1.97641800   -1.96957900   -0.05506600
 C                 -1.63019100   -3.32605900   -0.04442300
 C                 -3.33046500   -1.61630100   -0.06262900
 C                 -2.61445500   -4.30469100   -0.03802300
 H                 -0.57479500   -3.59977900   -0.02945700
 C                 -4.31416600   -2.59609700   -0.06647100
 H                 -3.59914700   -0.55962800   -0.07399800
 C                 -3.97525300   -3.95833900   -0.05451700
 H                 -2.32545300   -5.35659700    0.00052200
 H                 -5.36540300   -2.29978800   -0.09530100
 C                  6.84108800   -1.83130500   -0.05512300
 C                  7.90378700   -1.10817700   -0.54456900
 S                  7.39021200   -3.33782500    0.60768900
 C                  9.15349400   -1.77154600   -0.38944300
 H                  7.78792100   -0.13739000   -1.02716900
 C                  9.02619800   -2.99059000    0.21845400
 H                 10.10767600   -1.36217900   -0.72124500
 H                  9.81161500   -3.70388200    0.46281400
 C                 -5.00763700   -5.00649300   -0.06497300
 C                 -4.91364800   -6.29034100   -0.54948700
 S                 -6.58910800   -4.72303600    0.59041300
 C                 -6.11531100   -7.03770300   -0.39664300
 H                 -4.01391300   -6.67921400   -1.02699100
 C                 -7.10823600   -6.31353500    0.20456200
 H                 -6.23874900   -8.06966900   -0.72519400
 H                 -8.12035900   -6.63401200    0.44597500
 C                 -1.83263300    6.83780800   -0.08004800
 C                 -2.98926500    7.39567400   -0.57285600
 S                 -0.80254400    8.06818000    0.57996700
 C                 -3.03872700    8.81020400   -0.42257600
 H                 -3.77184200    6.80886700   -1.05450800
 C                 -1.91976800    9.31076700    0.18495400
 H                 -3.86954200    9.43132300   -0.75738500
 H                 -1.69440500   10.34825400    0.42618400

