%chk=Tr-Ph-para-Cz-TD-DFT-TRIPLET.chk
%mem=5000Mb
# td=(triplets,nstates=10) wb97xd/def2SVP pop=full iop(9/40=3) GFINPUT

Vertical absorption

0 1
 C                 -1.06932400    0.75163000   -0.06942400
 C                  1.18373200    0.54127900   -0.02291600
 C                 -0.12692000   -1.30219800    0.05839700
 N                  1.10280900   -0.78750100    0.04771200
 N                  0.12338000    1.34700900   -0.08256500
 N                 -1.23874900   -0.56882700    0.00064900
 N                 -5.70885300    4.04548500   -0.30249700
 N                  6.35993200    2.91479700   -0.06023400
 N                 -0.66043400   -6.96357700    0.36711800
 C                  7.39964900    2.59104300   -0.92941100
 C                  8.52033400    3.39603200   -0.62764900
 C                  7.42247400    1.67375400   -1.98408900
 C                  9.69141700    3.26575700   -1.38009600
 C                  8.59839500    1.56244000   -2.71789100
 H                  6.54803600    1.06984900   -2.23056700
 C                  9.72592400    2.34471800   -2.42020100
 H                 10.56367200    3.88302500   -1.15424000
 H                  8.64180500    0.85210900   -3.54641000
 H                 10.63333400    2.23065200   -3.01627300
 C                  6.79870000    3.91976500    0.79939600
 C                  6.12720300    4.53884100    1.85777600
 C                  8.13556300    4.24678600    0.48199200
 C                  6.81413900    5.50907100    2.57913100
 H                  5.10248900    4.26785700    2.11597700
 C                  8.80518400    5.22572100    1.22216600
 C                  8.13821500    5.85620200    2.26571700
 H                  6.31093500    6.00828600    3.41007700
 H                  9.83870700    5.48653200    0.98414600
 H                  8.64714500    6.62349100    2.85219400
 C                 -0.04582600   -7.88532100   -0.47784200
 C                 -0.41728000   -9.19018900   -0.08480300
 C                  0.78096200   -7.66329800   -1.58302300
 C                  0.06423300  -10.29303400   -0.79651400
 C                  1.24704200   -8.77593400   -2.27470700
 H                  1.04775300   -6.65390800   -1.89934000
 C                  0.89911700  -10.07991400   -1.88685600
 H                 -0.21640000  -11.30609400   -0.50018400
 H                  1.89555300   -8.62895400   -3.14115400
 H                  1.28414200  -10.93082000   -2.45203200
 C                 -1.42345100   -7.66041200    1.30180000
 C                 -2.18447900   -7.17250000    2.36812000
 C                 -1.29917100   -9.04603600    1.05736900
 C                 -2.83747800   -8.09962100    3.17291500
 H                 -2.26006200   -6.10302100    2.56968300
 C                 -1.96541000   -9.95860000    1.88079700
 C                 -2.73616800   -9.47955900    2.93329300
 H                 -3.43922400   -7.74355600    4.01196300
 H                 -1.87636100  -11.03200300    1.69982900
 H                 -3.26320600  -10.17945400    3.58451000
 C                 -6.75820500    3.91732900   -1.21002800
 C                 -7.72247400    4.91453000   -0.94359900
 C                 -6.91072100    3.01850200   -2.26981300
 C                 -8.86979800    5.00029300   -1.73793700
 C                 -8.06007900    3.12380200   -3.04535500
 H                 -6.15351300    2.26411800   -2.48822000
 C                 -9.03505900    4.09990700   -2.78357200
 H                 -9.62183000    5.76716700   -1.53993200
 H                 -8.20330700    2.43237100   -3.87860400
 H                 -9.92605200    4.15326400   -3.41205300
 C                 -5.98704000    5.11389800    0.54743700
 C                 -5.25260200    5.59857500    1.63364500
 C                 -7.22883400    5.68076300    0.18451800
 C                 -5.77595700    6.67789500    2.33695600
 H                 -4.30525900    5.14410900    1.92697500
 C                 -7.73416600    6.76563400    0.90736000
 C                 -7.00152900    7.26231200    1.97877800
 H                 -5.22061900    7.07573600    3.18914200
 H                 -8.69301900    7.21172400    0.63444300
 H                 -7.38233000    8.10953200    2.55228900
 C                 -0.26608200   -2.77695000    0.13892800
 C                  0.86888300   -3.59258600    0.21916600
 C                 -1.53399400   -3.37034600    0.13589100
 C                  0.74072200   -4.97289700    0.30412300
 H                  1.85423900   -3.12612400    0.22938200
 C                 -1.66654700   -4.75138700    0.20195700
 H                 -2.41498300   -2.73189000    0.06527700
 C                 -0.52881900   -5.56104300    0.29108800
 H                 -2.65386300   -5.21550600    0.17397500
 C                  2.53217000    1.15942400   -0.03465600
 C                  2.67398700    2.54921500   -0.12475900
 C                  3.67864100    0.36009200    0.04536100
 C                  3.93566900    3.12943900   -0.14338500
 H                  1.77859400    3.16727700   -0.19523000
 C                  4.94201500    0.93709500    0.04602300
 H                  3.56277900   -0.72126800    0.12305800
 C                  5.07788300    2.32626400   -0.05269600
 H                  4.04702000    4.21081500   -0.23923800
 C                 -2.27829400    1.60886600   -0.13409400
 C                 -3.55566700    1.03692600   -0.10346300
 C                 -2.15551700    3.00042700   -0.22455700
 C                 -4.68869100    1.83890100   -0.15105700
 H                 -3.64653300   -0.04677400   -0.02519100
 C                 -3.28550800    3.80516200   -0.29113100
 H                 -1.15868100    3.44090700   -0.25652100
 C                 -4.55981600    3.22878200   -0.24894900
 H                 -5.68447900    1.39515700   -0.10090100
 H                  5.83509500    0.31611600    0.13436100
 H                 -3.19004500    4.88810700   -0.38649400
 H                  1.62438500   -5.60723300    0.39212600

