%chk=Tr-Ph-para-Th-TD-DFT-OPT-FREQ-T1-cont-3.chk
%mem=5000MB
# opt freq td=(triplets,root=1) wb97xd/def2SVP nosymm scf=qc int=ultrafine

Title Card Required

0 1
 C                 -0.98464500   -0.58088300    2.18006300
 C                 -0.37461500    1.51112000    1.56800400
 C                  1.19211400   -0.10526700    1.79169600
 N                  0.90656600    1.16568100    1.49059700
 N                 -1.35321400    0.67249300    1.89410900
 N                  0.27510500   -1.00811500    2.13323100
 C                  2.60404000   -0.54273700    1.72581900
 C                  2.94551800   -1.86669700    2.02216100
 C                  3.61469100    0.36173200    1.38000100
 C                  4.26935200   -2.28099500    1.96518400
 H                  2.15457800   -2.56863700    2.29001800
 C                  4.93949700   -0.05030500    1.33604200
 H                  3.34695000    1.39563600    1.15989800
 C                  5.28960700   -1.38050400    1.62049900
 H                  4.51753000   -3.32400800    2.17531700
 H                  5.72222800    0.67204300    1.09717200
 C                 -2.03549100   -1.55704600    2.54642900
 C                 -1.69459500   -2.87919300    2.85499200
 C                 -3.37970000   -1.17150100    2.59797800
 C                 -2.67538100   -3.79353000    3.21250400
 H                 -0.64537900   -3.17549800    2.82325200
 C                 -4.36116300   -2.08999400    2.94543000
 H                 -3.64434000   -0.14268700    2.35253500
 C                 -4.02746000   -3.41725700    3.25947400
 H                 -2.39034400   -4.81309100    3.47887500
 H                 -5.40795600   -1.77769600    2.95925700
 C                  6.69596900   -1.80680100    1.54621600
 C                  7.69592500   -1.30043000    0.74951400
 S                  7.30138900   -3.09897700    2.53193600
 C                  8.94512400   -1.95860200    0.93235800
 H                  7.52907900   -0.49576600    0.03277400
 C                  8.87840900   -2.95569600    1.86685700
 H                  9.85456400   -1.70652100    0.38688700
 H                  9.67840500   -3.61244100    2.20453400
 C                 -5.05669400   -4.40390600    3.62198900
 C                 -5.03142200   -5.76584100    3.43321900
 S                 -6.53778000   -3.92667400    4.38944000
 C                 -6.20632000   -6.41902000    3.90127400
 H                 -4.20213100   -6.28010000    2.94656300
 C                 -7.10922100   -5.54517500    4.44270600
 H                 -6.37604200   -7.49367000    3.83450700
 H                 -8.08184600   -5.76950700    4.87750400
 C                 -0.38933630    2.94635306    1.20865028
 C                 -1.57755700    3.68541681    1.24620333
 C                  0.81692527    3.61018453    0.95872852
 C                 -1.55894149    5.05819541    1.04396453
 H                 -2.51561305    3.16767609    1.45029574
 C                  0.83284119    4.98208041    0.74596037
 H                  1.74101391    3.03256597    0.92478993
 C                 -0.35404717    5.73132980    0.78507279
 H                 -2.49005621    5.62470342    1.10559476
 H                  1.78054244    5.48094247    0.53033154
 C                 -0.35437799    7.18421212    0.55409910
 C                 -1.36161457    7.96069781    0.03095076
 S                  1.02360951    8.16330209    0.94509838
 C                 -1.01832197    9.33917514   -0.05879342
 H                 -2.31307531    7.54738786   -0.30508093
 C                  0.24526717    9.59370064    0.40005641
 H                 -1.68116499   10.10982668   -0.45233041
 H                  0.75945970   10.55195850    0.45222398

