%chk=Tr-Ph-meta-Th-TD-DFT.chk
%mem=5500MB
# td=(nstates=10) wb97xd/def2SVP pop=full iop(9/40=3) GFINPUT

Vertical absorption

0 1
C     0     -0.2927714242     0.2764365184     -0.164274076
C     0     -0.392697254     -1.9846194973     -0.1718239535
C     0     -2.3008750451     -0.767417032     -0.178243312
N     0     -1.7251507973     -1.9697741291     -0.1782826428
N     0     0.3607273432     -0.8849049092     -0.1641486554
N     0     -1.6218832966     0.3791720725     -0.1708814433
C     0     -3.785094333     -0.702114628     -0.1851767065
C     0     -4.439288232     0.5347426518     -0.2186455302
C     0     -4.5327927455     -1.8819230959     -0.1699259357
C     0     -5.8294468137     0.577387558     -0.2323567982
H     0     -3.8460673413     1.4491359056     -0.2371323123
C     0     -5.9319922229     -1.8496309558     -0.1716196295
H     0     -4.0009157873     -2.8336122486     -0.1720163356
C     0     -6.5709906357     -0.6009042918     -0.2037004117
H     0     -6.3447321117     1.5395844375     -0.2571669259
C     0     0.2923826071     -3.3029467975     -0.1715124387
C     0     1.6877688544     -3.3614485219     -0.1450671862
C     0     -0.4521726021     -4.4874721594     -0.2092405393
C     0     2.3585877565     -4.5898184765     -0.1397235072
H     0     2.2467805809     -2.4254550936     -0.1440555318
C     0     0.2052235299     -5.7131711435     -0.2156114325
H     0     -1.5404551096     -4.430335435     -0.2366906121
C     0     1.5961007779     -5.7670598924     -0.1757855152
H     0     -0.370858068     -6.6401551423     -0.2434451853
C     0     0.5065394739     1.5286718894     -0.1547472994
C     0     -0.1402359255     2.7665848038     -0.1341756649
C     0     1.9049100693     1.4753146097     -0.1779032488
C     0     0.5886777957     3.9612991164     -0.1204978223
H     0     -1.2302997839     2.7830210955     -0.1444797631
C     0     2.6383545421     2.6570567002     -0.1759615799
H     0     2.3984771324     0.5035317709     -0.2007169105
C     0     1.9897344571     3.8888543732     -0.1421641391
H     0     3.7294017837     2.6211811487     -0.1925355142
C     0     -6.6971876391     -3.1079509743     -0.1311803504
C     0     -6.327908433     -4.308722829     0.4266398418
S     0     -8.2723165842     -3.2321839351     -0.8468931646
C     0     -7.3172640259     -5.3225837233     0.2813858053
H     0     -5.3816643071     -4.4519294776     0.9492503483
C     0     -8.4259091194     -4.8801498895     -0.3863225335
H     0     -7.2119045661     -6.3379306879     0.6637723138
H     0     -9.326659534     -5.4382229045     -0.6362871125
C     0     -0.1172091457     5.253664424     -0.0757003375
C     0     -1.3470404982     5.5311706433     0.4719851072
S     0     0.5716229994     6.6850055012     -0.7724949635
C     0     -1.727254135     6.8965957634     0.3342254407
H     0     -1.9504355551     4.7797667232     0.9822036288
C     0     -0.7821311938     7.6398168533     -0.3177936939
H     0     -2.6626040282     7.3109985672     0.7105680303
H     0     -0.8111825995     8.7010380006     -0.5591412243
C     0     3.8305314138     -4.624557105     -0.0882958888
C     0     4.6829596282     -3.702563353     0.4709862785
S     0     4.7293425107     -5.9314265791     -0.7904639199
C     0     6.0562857744     -4.0548968335     0.3375964957
H     0     4.331352502     -2.8082913475     0.9864077043
C     0     6.2307235084     -5.2399451744     -0.3226413748
H     0     6.8808775348     -3.4549634108     0.7227591496
H     0     7.165528634     -5.7435056299     -0.5631679479
H     0     2.0983278083     -6.7375743807     -0.1580676882
H     0     -7.6627069308     -0.5513990461     -0.1915749099
H     0     2.5794194567     4.8087103333     -0.1179289653

