%chk=Tr-Ph-m-Th-Cz-OPT-FREQ.chk
%mem=5500MB
# opt freq wb97xd/def2SVP nosymm int=ultrafine scf=yqc

Title Card Required

0 1
 C                 -2.13181077   -0.57003492    0.09655112
 C                 -0.11633510    0.55965168    0.15629687
 C                 -0.16634805   -1.72642585    0.49262676
 N                  0.51057236   -0.58522786    0.40068133
 N                 -1.43559528    0.56809379   -0.04577032
 N                 -1.49964335   -1.71872980    0.39182481
 C                  4.34958331   -3.96900135    0.87680169
 C                  5.02455489   -2.79205140    0.73138948
 S                  5.48635108   -5.31330419    1.03238702
 C                  6.43261354   -2.91609199    0.89910886
 H                  4.53955160   -1.86080765    0.52170180
 C                  6.84193868   -4.18887509    1.16898552
 H                  7.10598425   -2.08682233    0.82878172
 C                 -6.59908013   -2.99804409    0.24596016
 C                 -6.08974847   -4.15027921    0.76966025
 S                 -8.32589544   -3.17205467   -0.06610350
 C                 -7.02110803   -5.22751271    0.78773169
 H                 -5.08364273   -4.23911712    1.12309527
 C                 -8.23685114   -4.90308320    0.25846356
 H                 -6.78624095   -6.20123141    1.16563523
 C                  0.33141546    5.62716601   -0.49277221
 C                 -0.93964039    5.85136352   -0.93826789
 S                  1.20762298    7.15184196   -0.34333182
 C                 -1.28232770    7.23470392   -1.01783164
 H                 -1.61634850    5.06406488   -1.19441169
 C                 -0.28075724    8.06679869   -0.59831506
 H                 -2.23657695    7.58380679   -1.35819050
 N                 -0.42742164    9.51682152   -0.38047811
 N                  8.22163596   -4.55985422    1.52327972
 N                 -9.31876626   -5.86140438   -0.01077560
 C                  0.02855846   10.34711358   -1.53238468
 C                  0.77260702   11.42099758   -1.09392147
 C                 -0.20898288   10.14882884   -2.89230926
 C                  1.19566718   12.43986325   -1.93704469
 C                  0.24655813   11.13833753   -3.79092554
 H                 -0.72307656    9.27909605   -3.24519986
 C                  0.91962964   12.29573022   -3.31254476
 H                  1.71663977   13.29605715   -1.55887857
 H                  0.08204512   11.01472997   -4.84086682
 H                  1.22122078   13.05562326   -4.00243704
 C                  0.41216360   10.03490722    0.73582144
 C                  1.02844533   11.21320532    0.38517146
 C                  0.60459016    9.47283430    1.99471530
 C                  1.75762782   11.97928014    1.29032193
 C                  1.37943616   10.19498043    2.93028537
 H                  0.17382731    8.52587945    2.24916557
 C                  1.93307724   11.45650226    2.58829375
 H                  2.17466647   12.92434736    1.01159638
 H                  1.54819425    9.78846749    3.90500624
 H                  2.48823658   12.01093351    3.31688900
 C                  8.32462192   -5.80973703    2.33105321
 C                  9.33548684   -6.61635267    1.85724399
 C                  7.55619213   -6.19632359    3.42569267
 C                  9.74297356   -7.77405392    2.50733719
 C                  7.90982812   -7.39099199    4.09265955
 H                  6.72801173   -5.60425534    3.75476134
 C                  9.01594563   -8.16466423    3.64942462
 H                 10.57099032   -8.35116129    2.15002450
 H                  7.34193637   -7.71417769    4.94049876
 H                  9.29553820   -9.04992758    4.18197176
 C                  9.06826560   -4.87527967    0.34044925
 C                  9.15414150   -4.17582214   -0.85964985
 C                  9.81801469   -6.00675618    0.55592994
 C                 10.10384787   -4.60826432   -1.81122662
 H                  8.52459295   -3.33130912   -1.05262787
 C                 10.79318907   -6.44277292   -0.33437935
 C                 10.93819912   -5.72546915   -1.53980797
 H                 10.19754015   -4.08844572   -2.74176836
 H                 11.40448323   -7.29427519   -0.11721552
 H                 11.67639432   -6.02606479   -2.25462032
 C                -10.14179368   -5.50016610   -1.19351146
 C                 -9.69935121   -5.05396606   -2.43566475
 C                -11.48127281   -5.66164934   -0.93089630
 C                -10.66163822   -4.86195205   -3.45018159
 H                 -8.66135255   -4.86827967   -2.61700192
 C                -12.45752273   -5.53058764   -1.91311673
 C                -12.03550612   -5.12465436   -3.19785169
 H                -10.35386403   -4.52111949   -4.41591068
 H                -13.48812311   -5.72302743   -1.70232793
 H                -12.75213520   -5.00941016   -3.98408354
 C                -10.33667805   -5.93807797    1.07630768
 C                -10.12888236   -5.99445528    2.45289751
 C                -11.61090436   -5.94728505    0.55318357
 C                -11.25821948   -6.15503118    3.28740323
 H                 -9.14424032   -5.92505999    2.86498471
 C                -12.74379423   -6.15584422    1.33284638
 C                -12.55962953   -6.26120513    2.72737881
 H                -11.13149224   -6.20013749    4.34957481
 H                -13.71703360   -6.22434389    0.89369778
 H                -13.40322576   -6.41774655    3.36593518
 C                 -3.66041859   -0.55681836   -0.08601063
 C                 -4.39842549   -1.72185575    0.15105639
 C                 -4.31090008    0.61790101   -0.49167453
 C                 -5.78537703   -1.72292733   -0.03657989
 H                 -3.90222681   -2.61187380    0.47491956
 C                 -5.69657823    0.61341809   -0.69889208
 H                 -3.74936312    1.51714298   -0.64538025
 C                 -6.43321171   -0.56014872   -0.48042054
 H                 -6.19140194    1.50599086   -1.02405144
 C                  0.63301271   -3.02499258    0.70652492
 C                  2.03060152   -2.94210185    0.72689972
 C                 -0.00024345   -4.26633087    0.87013328
 C                  2.80885049   -4.08936348    0.89746890
 H                  2.50584684   -1.99182306    0.60604410
 C                  0.77872752   -5.42083829    1.06438381
 H                 -1.06780941   -4.33410661    0.84733711
 C                  2.18299968   -5.33322531    1.07544842
 H                  0.30213662   -6.36834814    1.20293685
 C                  0.71644397    1.84919220    0.12365960
 C                  0.13646355    3.08974741   -0.18325686
 C                  2.08232848    1.76250306    0.41750720
 C                  0.93074479    4.24642960   -0.16098709
 H                 -0.90218917    3.15546328   -0.42874877
 C                  2.86673061    2.91838456    0.44265130
 H                  2.52397292    0.80931587    0.62630741
 C                  2.28604717    4.15658519    0.16535688
 H                  3.90869287    2.85770554    0.67449682
 H                  2.77248182   -6.21347873    1.21889571
 H                 -7.49005991   -0.56583692   -0.65055830
 H                  2.88187093    5.04159639    0.19854080

