%chk=Tr-Ph-m-Th-TD-DFT-OPT-FREQ-T1-cont.chk
%mem=5000MB
# opt=(calcfc,tight) freq td=(triplets,root=1) wb97xd/def2svp nosymm scf=qc

Title Card Required

0 1
 C                 -0.30039800    0.28509000   -0.14921000
 C                 -0.40021700   -1.97615300   -0.16187700
 C                 -2.30845600   -0.75833400   -0.15335400
 N                 -1.73184200   -1.96101600   -0.16028100
 N                  0.35325400   -0.87507700   -0.15579200
 N                 -1.63015900    0.38785000   -0.14800300
 C                 -3.79286900   -0.69539000   -0.14967500
 C                 -4.45004400    0.54008700   -0.16642100
 C                 -4.53818400   -1.87672000   -0.14001700
 C                 -5.84025600    0.58011500   -0.16940300
 H                 -3.85868500    1.45573000   -0.17938700
 C                 -5.93746100   -1.84747600   -0.13142000
 H                 -4.00438900   -2.82717100   -0.15419800
 C                 -6.57916800   -0.59999500   -0.14692400
 H                 -6.35798900    1.54126300   -0.18038500
 C                  0.28591600   -3.29355000   -0.16858100
 C                  1.68152700   -3.35055100   -0.15005700
 C                 -0.45775400   -4.47861400   -0.20421000
 C                  2.35369300   -4.57809900   -0.15086000
 H                  2.23954600   -2.41402700   -0.14976500
 C                  0.20090000   -5.70346300   -0.21668300
 H                 -1.54625300   -4.42270400   -0.22507700
 C                  1.59212900   -5.75579400   -0.18496300
 H                 -0.37420400   -6.63108100   -0.24300800
 C                  0.50169200    1.53637600   -0.14124000
 C                 -0.13566700    2.75369800   -0.10564200
 C                  1.92417100    1.46770000   -0.16932800
 C                  0.62254800    4.00725400   -0.09138200
 H                 -1.22429700    2.76852900   -0.08511700
 C                  2.68759000    2.65593600   -0.16096100
 H                  2.40437800    0.49028900   -0.19961900
 C                  2.08664500    3.88841400   -0.12318000
 H                  3.77730700    2.58793600   -0.18531300
 C                 -6.69974500   -3.10768500   -0.09732100
 C                 -6.32308200   -4.31327200    0.44457900
 S                 -8.28124900   -3.22762200   -0.79960600
 C                 -7.31173000   -5.32756800    0.29801900
 H                 -5.37174100   -4.46029900    0.95675000
 C                 -8.42727000   -4.88052900   -0.35482400
 H                 -7.20081600   -6.34660300    0.66880600
 H                 -9.32917400   -5.43783500   -0.60234400
 C                  0.01054600    5.20117500   -0.04790300
 C                 -1.55518300    5.47887600   -0.01014700
 S                  0.92204700    6.82094800   -0.02422100
 C                 -1.84887900    6.76629100    0.02968000
 H                 -2.27547800    4.66255600   -0.02050100
 C                 -0.67426500    7.68276800    0.03159600
 H                 -2.86623500    7.16084800    0.05854200
 H                 -0.71264000    8.77142300    0.05060200
 C                  3.82625400   -4.61139900   -0.10768700
 C                  4.68094000   -3.68655500    0.44284100
 S                  4.72207900   -5.92032200   -0.80945100
 C                  6.05394000   -4.03832600    0.30306000
 H                  4.33202000   -2.79011200    0.95629100
 C                  6.22547600   -5.22582500   -0.35322700
 H                  6.88016400   -3.43600900    0.68090400
 H                  7.15923900   -5.72967000   -0.59716900
 H                  2.09523800   -6.72592500   -0.17242100
 H                 -7.67084000   -0.55280900   -0.12655700
 H                  2.68792600    4.79961700   -0.11684300

