%oldchk=\home\natrosa\teste-TM\Tr-Th-Cz-OPT-FREQ-TD-DFT-S1-cont-3.chk
%chk=G:\Meu Drive\POS-DOC-IME\TRIAZINA\wb97xd\Tr-Th-Cz\Tr-Th-Cz-OPT-FREQ-TD-DFT-S1-cont-5.chk
%mem=5500MB
# opt freq td=(root=1) wb97xd/def2SVP nosymm guess=read scf=qc
int=ultrafine

Title Card Required

0 1
 C                 -1.15464500   -0.58121800    0.12978900
 C                  0.12671200    1.28125900    0.08128000
 C                  1.09901800   -0.75477500    0.24737100
 N                  1.25156700    0.58943400    0.16894900
 N                 -1.10882600    0.75596200    0.05460200
 N                 -0.10351000   -1.38032400    0.23808900
 C                  2.26246100   -1.56161900    0.35710100
 C                  3.62277300   -1.14452800    0.36424000
 S                  2.08696200   -3.29977100    0.46649600
 C                  4.50278000   -2.20621200    0.38636700
 H                  3.89018200   -0.08963800    0.34547300
 C                  3.85219400   -3.46451100    0.43319700
 H                  5.58835800   -2.11324300    0.42084300
 C                 -2.47828600   -1.20503700    0.09204800
 C                 -2.78180600   -2.54421400    0.16391200
 S                 -3.89454500   -0.22535800   -0.04747300
 C                 -4.17629300   -2.79200100    0.13390100
 H                 -2.00576100   -3.30346500    0.25284800
 C                 -4.90906800   -1.63317700    0.02947800
 H                 -4.63934300   -3.77683600    0.19394900
 C                  0.23514700    2.73841300    0.00433200
 C                 -0.78716300    3.65063000   -0.10520400
 S                  1.78626400    3.50184500    0.03130000
 C                 -0.32191000    4.98637900   -0.19529300
 H                 -1.83065100    3.33962400   -0.13707700
 C                  1.04937500    5.06518700   -0.14359100
 H                 -0.95753600    5.86504900   -0.30393000
 N                  1.82439600    6.22596900   -0.16666600
 N                  4.45349100   -4.69084300    0.35318500
 N                 -6.29723200   -1.52697400   -0.06829300
 C                  2.78705700    6.55525900   -1.12037200
 C                  3.35086100    7.80728200   -0.79193700
 C                  3.18285800    5.84453300   -2.25528800
 C                  4.34019100    8.35569600   -1.61324400
 C                  4.16909300    6.41069100   -3.05601500
 H                  2.73661500    4.88006300   -2.50237400
 C                  4.74576300    7.65182900   -2.74156600
 H                  4.78482700    9.32355300   -1.37144300
 H                  4.49895900    5.87668200   -3.94984000
 H                  5.51774700    8.06693800   -3.39246500
 C                  1.76495900    7.25312200    0.77527300
 C                  2.69509100    8.25475500    0.42334400
 C                  0.96752900    7.35589400    1.91646400
 C                  2.82167900    9.39160000    1.22707500
 C                  1.11301300    8.49514700    2.70080700
 H                  0.25965300    6.56894700    2.18146900
 C                  2.02704400    9.50618900    2.36209600
 H                  3.53629600   10.17547500    0.96673300
 H                  0.50265800    8.60306800    3.60011400
 H                  2.11396800   10.38831800    2.99942500
 C                  4.10890700   -5.83826600    1.08640000
 C                  4.97035000   -6.89669700    0.72417100
 C                  3.13266600   -5.98454300    2.07371500
 C                  4.83220300   -8.13829200    1.33361600
 C                  3.00488300   -7.24046800    2.66469200
 H                  2.49639200   -5.15297800    2.37702400
 C                  3.83705300   -8.30516800    2.29968800
 H                  5.49308700   -8.96563600    1.06796400
 H                  2.24499100   -7.38946100    3.43398400
 H                  3.71379300   -9.27492700    2.78535900
 C                  5.53157500   -5.02041600   -0.48722200
 C                  6.16192100   -4.23167800   -1.45051700
 C                  5.89044000   -6.36879000   -0.27427800
 C                  7.20889700   -4.80931400   -2.16625000
 H                  5.83750500   -3.21133600   -1.65395700
 C                  6.93446700   -6.92788900   -1.00306300
 C                  7.59831500   -6.13550700   -1.94196000
 H                  7.72470800   -4.21718700   -2.92443400
 H                  7.22314200   -7.96987300   -0.85209100
 H                  8.42062600   -6.55955000   -2.52115200
 C                 -7.07879600   -2.09685800   -1.07365300
 C                 -6.67958000   -2.85159400   -2.17809400
 C                 -8.43410400   -1.78084400   -0.83802000
 C                 -7.67224000   -3.29696000   -3.04448800
 H                 -5.62705800   -3.07880300   -2.35436100
 C                 -9.41375900   -2.24140500   -1.72264100
 C                 -9.02659500   -3.00007100   -2.82151900
 H                 -7.38952200   -3.88884700   -3.91780900
 H                -10.46648800   -2.00524700   -1.55267400
 H                 -9.78015100   -3.36701900   -3.52108500
 C                 -7.13701600   -0.84368100    0.81127900
 C                 -6.81233800   -0.13643700    1.97069100
 C                 -8.47143500   -0.97700700    0.37019200
 C                 -7.85620100    0.44848100    2.67963400
 H                 -5.77820300   -0.04314200    2.30560000
 C                 -9.50322300   -0.38046500    1.10058900
 C                 -9.18864300    0.33197300    2.25226200
 H                 -7.63143600    1.00956600    3.58929500
 H                -10.54002100   -0.47529000    0.77055000
 H                 -9.98325700    0.80480800    2.83270100

