%chk=Tr-Th-OPT-FREQ-TD-DFT-OPT-FREQ-T1-cont.chk
# opt=tight freq td=(triplets,root=1) wb97xd nosymm def2svp

Title Card Required

0 1
 C                 -1.23051900   -0.42228000   -0.00132300
 C                  0.24587700    1.28701800    0.00254100
 C                  0.99030300   -0.84758500    0.00049100
 N                  1.29293300    0.45275500    0.00256500
 N                 -1.03520300    0.89976500    0.00065200
 N                 -0.24998600   -1.33692900   -0.00150900
 C                  2.09786000   -1.80089300    0.00042300
 C                  3.44420600   -1.52136200    0.00241100
 S                  1.79968000   -3.50370500   -0.00238000
 C                  4.24137000   -2.69605100    0.00167800
 H                  3.82066200   -0.49892400    0.00432000
 C                  3.48052400   -3.83821400   -0.00086200
 H                  5.33124500   -2.69879700    0.00297100
 H                  3.83284100   -4.86893000   -0.00192400
 C                 -2.59968900   -0.90169900   -0.00339400
 C                 -3.03701700   -2.23870100   -0.00557600
 S                 -3.93120900    0.21406000   -0.00333800
 C                 -4.43746700   -2.34181500   -0.00716300
 H                 -2.33874300   -3.07490500   -0.00592500
 C                 -5.05783300   -1.09560000   -0.00619500
 H                 -4.98249700   -3.28561200   -0.00894400
 H                 -6.12792000   -0.89229500   -0.00704200
 C                  0.51551300    2.71229000    0.00471100
 C                 -0.42387700    3.76003300    0.00515300
 S                  2.14707600    3.30666600    0.00714500
 C                  0.18746800    5.02437700    0.00745100
 H                 -1.49722000    3.57349300    0.00382300
 C                  1.57635400    4.93776000    0.00873400
 H                 -0.35701700    5.96849100    0.00815600
 H                  2.28774900    5.76260400    0.01054700

