%chk=TRIAZINE-OPT-FREQ.chk
%mem=5500MB
%nprocshared=24
# opt=tight freq wb97xd/def2SVP geom=connectivity

Title Card Required

0 1
 C                  1.24910500   -0.35111500   -0.00001400
 C                 -0.92864900   -0.90616300    0.00003100
 C                 -0.32046700    1.25728100   -0.00001700
 N                 -1.32343300    0.37152000    0.00001400
 N                  0.33996500   -1.33184400    0.00001800
 N                  0.98348100    0.96032100   -0.00003200
 H                 -1.70670200   -1.66647100    0.00005800
 H                 -0.58991000    2.31125100   -0.00003100
 H                  2.29658300   -0.64477100   -0.00002500

 1 5 1.5 6 1.5 9 1.0
 2 4 1.5 5 1.5 7 1.0
 3 4 1.5 6 1.5 8 1.0
 4
 5
 6
 7
 8
 9

