69
	Energy: -1146658.6255354
C         -0.62236        1.11814       -0.14814
C         -0.62234       -1.11814        0.14814
C          1.31675        0.00001       -0.00000
N          0.70984       -1.17467        0.11246
N         -1.32910       -0.00001       -0.00000
N          0.70982        1.17468       -0.11246
N         -1.30930        2.29507       -0.36012
N         -1.30926       -2.29509        0.36012
N          2.70576        0.00002       -0.00000
C         -0.77805       -3.60618        0.23058
C         -1.84456       -4.52514        0.26593
C          0.53996       -4.05173        0.10538
C         -1.60925       -5.89389        0.13442
C          0.75579       -5.42207       -0.02487
H          1.37146       -3.35607        0.13158
C         -0.30135       -6.33919       -0.02030
H         -2.44169       -6.60012        0.16065
H          1.78269       -5.78133       -0.12134
H         -0.09614       -7.40646       -0.12355
C         -2.70683       -2.41152        0.57442
C         -3.65921       -1.44570        0.90704
C         -3.06366       -3.77006        0.48992
C         -4.97610       -1.86152        1.08864
H         -3.38635       -0.40267        1.02949
C         -4.38828       -4.16952        0.67189
C         -5.34747       -3.20525        0.95966
H         -5.72973       -1.11372        1.34495
H         -4.65955       -5.22488        0.60156
H         -6.38917       -3.49760        1.10541
C          3.52630       -0.95999       -0.61518
C          4.87326       -0.60915       -0.39490
C          3.18376       -2.05738       -1.40789
C          5.89728       -1.39065       -0.93532
C          4.21889       -2.82233       -1.93693
H          2.14452       -2.30832       -1.61083
C          5.56346       -2.50296       -1.69898
H          6.94249       -1.12427       -0.76482
H          3.97193       -3.68835       -2.55483
H          6.35093       -3.12601       -2.12723
C          3.52628        0.96005        0.61517
C          3.18373        2.05744        1.40789
C          4.87325        0.60923        0.39489
C          4.21884        2.82240        1.93692
H          2.14449        2.30836        1.61082
C          5.89726        1.39074        0.93531
C          5.56342        2.50305        1.69897
H          3.97187        3.68841        2.55483
H          6.94248        1.12438        0.76481
H          6.35088        3.12611        2.12722
C         -0.77811        3.60616       -0.23058
C         -1.84464        4.52510       -0.26593
C          0.53989        4.05174       -0.10537
C         -1.60936        5.89386       -0.13441
C          0.75569        5.42208        0.02488
H          1.37140        3.35609       -0.13157
C         -0.30147        6.33918        0.02031
H         -2.44181        6.60007       -0.16064
H          1.78258        5.78136        0.12136
H         -0.09627        7.40646        0.12357
C         -2.70687        2.41148       -0.57442
C         -3.65923        1.44564       -0.90705
C         -3.06372        3.77000       -0.48992
C         -4.97613        1.86144       -1.08865
H         -3.38635        0.40262       -1.02950
C         -4.38835        4.16944       -0.67189
C         -5.34752        3.20516       -0.95967
H         -5.72975        1.11362       -1.34497
H         -4.65964        5.22480       -0.60155
H         -6.38923        3.49749       -1.10541
