60
	Energy: -1648541.1660162
C         -0.29277        0.27644       -0.16427
C         -0.39270       -1.98462       -0.17182
C         -2.30088       -0.76742       -0.17824
N         -1.72515       -1.96977       -0.17828
N          0.36073       -0.88491       -0.16415
N         -1.62188        0.37917       -0.17088
C         -3.78509       -0.70212       -0.18518
C         -4.43929        0.53474       -0.21865
C         -4.53279       -1.88192       -0.16993
C         -5.82945        0.57739       -0.23236
H         -3.84607        1.44914       -0.23713
C         -5.93199       -1.84963       -0.17162
H         -4.00092       -2.83361       -0.17202
C         -6.57099       -0.60090       -0.20370
H         -6.34473        1.53958       -0.25717
C          0.29238       -3.30295       -0.17151
C          1.68777       -3.36145       -0.14507
C         -0.45217       -4.48747       -0.20924
C          2.35859       -4.58982       -0.13972
H          2.24678       -2.42545       -0.14406
C          0.20522       -5.71317       -0.21561
H         -1.54045       -4.43034       -0.23669
C          1.59610       -5.76706       -0.17579
H         -0.37086       -6.64016       -0.24344
C          0.50654        1.52867       -0.15475
C         -0.14024        2.76659       -0.13418
C          1.90491        1.47531       -0.17790
C          0.58868        3.96130       -0.12050
H         -1.23030        2.78302       -0.14448
C          2.63835        2.65706       -0.17596
H          2.39848        0.50353       -0.20072
C          1.98973        3.88885       -0.14216
H          3.72940        2.62118       -0.19254
C         -6.69719       -3.10795       -0.13118
C         -6.32791       -4.30872        0.42664
S         -8.27232       -3.23218       -0.84689
C         -7.31726       -5.32258        0.28139
H         -5.38166       -4.45193        0.94925
C         -8.42591       -4.88015       -0.38632
H         -7.21190       -6.33793        0.66377
H         -9.32666       -5.43822       -0.63629
C         -0.11721        5.25366       -0.07570
C         -1.34704        5.53117        0.47198
S          0.57162        6.68501       -0.77250
C         -1.72725        6.89660        0.33422
H         -1.95044        4.77977        0.98220
C         -0.78213        7.63982       -0.31779
H         -2.66260        7.31100        0.71057
H         -0.81118        8.70104       -0.55914
C          3.83053       -4.62456       -0.08830
C          4.68296       -3.70256        0.47099
S          4.72934       -5.93143       -0.79046
C          6.05629       -4.05490        0.33760
H          4.33135       -2.80829        0.98641
C          6.23072       -5.23994       -0.32264
H          6.88088       -3.45496        0.72276
H          7.16553       -5.74351       -0.56317
H          2.09833       -6.73757       -0.15807
H         -7.66271       -0.55140       -0.19158
H          2.57942        4.80871       -0.11793
