120
	Energy: -2619433.3222488
C         -1.17150       -0.48364        0.17619
C          0.18113        1.32293        0.00352
C          1.07519       -0.73777        0.28284
N          1.27503        0.57169        0.13165
N         -1.05973        0.83580        0.02042
N         -0.13072       -1.30589        0.31062
C          5.71192       -4.12661        0.86404
C          6.93765       -3.77976        1.38336
S          5.69694       -5.78967        0.37809
C          7.86231       -4.85768        1.41708
H          7.15619       -2.78420        1.76967
C          7.33625       -6.01703        0.91311
H          8.87889       -4.79676        1.80495
C         -6.46693       -2.77963        0.28574
C         -6.86196       -3.94074        0.90855
S         -7.80201       -2.03168       -0.52727
C         -8.23779       -4.24197        0.72240
H         -6.18296       -4.55702        1.49784
C         -8.88332       -3.30264       -0.03624
H         -8.74706       -5.11451        1.13093
C          0.84572        7.01593       -0.68376
C         -0.00812        7.88551       -1.32179
S          2.22579        7.85574       -0.05730
C          0.43767        9.23421       -1.29814
H         -0.92767        7.56142       -1.80913
C          1.63291        9.38114       -0.64676
H         -0.09182       10.07522       -1.74528
N          2.36823       10.55387       -0.46782
N          7.97513       -7.24836        0.76197
N        -10.23466       -3.26854       -0.38337
C          3.10343       11.20511       -1.45724
C          3.73411       12.33464       -0.89303
C          3.25426       10.86720       -2.80246
C          4.53128       13.15126       -1.70075
C          4.05403       11.69391       -3.58456
H          2.76209        9.98693       -3.21977
C          4.68597       12.82555       -3.04372
H          5.02565       14.03015       -1.28126
H          4.19268       11.45626       -4.64154
H          5.30571       13.45364       -3.68655
C          2.52596       11.24679        0.73105
C          3.36402       12.36112        0.51137
C          1.97896       10.96729        1.98406
C          3.66296       13.21669        1.57582
C          2.29274       11.83234        3.02715
H          1.33293       10.10103        2.13686
C          3.12524       12.94586        2.82926
H          4.30907       14.08397        1.42350
H          1.88112       11.64022        4.02037
H          3.35072       13.60441        3.67027
C          7.71393       -8.40318        1.49737
C          8.54305       -9.44465        1.02794
C          6.81271       -8.59039        2.54628
C          8.46451      -10.70717        1.62306
C          6.75219       -9.85580        3.12066
H          6.17984       -7.77406        2.89859
C          7.56719      -10.90540        2.66668
H          9.09914      -11.52403        1.27268
H          6.05622      -10.03447        3.94319
H          7.49399      -11.88618        3.14054
C          8.95928       -7.53672       -0.18281
C          9.52534       -6.69770       -1.14311
C          9.34249       -8.88841       -0.04974
C         10.49869       -7.24125       -1.97486
H          9.21219       -5.65623       -1.23482
C         10.32480       -9.41074       -0.89651
C         10.89820       -8.58229       -1.85481
H         10.96053       -6.61041       -2.73752
H         10.63435      -10.45425       -0.80663
H         11.66606       -8.97622       -2.52340
C        -10.75999       -3.49538       -1.65423
C        -10.09229       -3.83417       -2.83187
C        -12.16218       -3.34000       -1.60667
C        -10.86267       -4.01306       -3.97611
H         -9.00734       -3.95054       -2.85189
C        -12.91434       -3.52702       -2.77014
C        -12.25858       -3.86196       -3.94970
H        -10.36946       -4.27757       -4.91398
H        -14.00021       -3.41149       -2.75109
H        -12.83253       -4.01011       -4.86647
C        -11.28333       -2.96007        0.48206
C        -11.23536       -2.64758        1.84098
C        -12.49796       -2.99704       -0.23572
C        -12.44114       -2.37432        2.47832
H        -10.28580       -2.61947        2.37837
C        -13.69696       -2.72058        0.42817
C        -13.66101       -2.41109        1.78334
H        -12.43723       -2.12570        3.54184
H        -14.64621       -2.74597       -0.11139
H        -14.58919       -2.19265        2.31494
C         -2.53344       -1.07063        0.20100
C         -2.71006       -2.45106        0.35282
C         -3.66131       -0.25280        0.06983
C         -3.98463       -3.00034        0.36979
H         -1.83012       -3.08823        0.44524
C         -4.93628       -0.80196        0.09698
H         -3.52249        0.82248       -0.04533
C         -5.12107       -2.18504        0.24784
H         -4.10184       -4.08195        0.45840
H         -5.80478       -0.14391        0.01602
C          2.26360       -1.61289        0.42917
C          3.55340       -1.06919        0.40410
C          2.11318       -2.99471        0.59126
C          4.66599       -1.88849        0.53556
H          3.66939        0.00644        0.26851
C          3.22634       -3.81272        0.73141
H          1.10825       -3.41706        0.61339
C          4.52230       -3.27445        0.70754
H          5.66454       -1.45058        0.48402
H          3.08763       -4.88657        0.87765
C          0.35527        2.78587       -0.16854
C         -0.75834        3.62352       -0.30305
C          1.63566        3.34968       -0.19683
C         -0.59467        4.99299       -0.45938
H         -1.75564        3.18394       -0.27154
C          1.79877        4.71849       -0.36307
H          2.50225        2.69590       -0.09517
C          0.68708        5.56449       -0.49803
H         -1.47503        5.63416       -0.53275
H          2.80734        5.13659       -0.40570
