120
	Energy: -2619341.2073351
C         -1.82718       -0.23384        0.27336
C          0.23382        0.69669        0.18686
C          0.01040       -1.52697        0.54333
N          0.82245       -0.47961        0.39982
N         -1.08690        0.86288        0.11600
N         -1.31853       -1.44716        0.48792
C          4.07779       -4.32555        1.19147
C          4.95814       -3.36471        1.63021
S          4.91747       -5.77100        0.73800
C          6.31218       -3.79633        1.62713
H          4.63551       -2.38499        1.98297
C          6.45332       -5.08147        1.17763
H          7.16062       -3.19464        1.95230
C         -6.34299       -2.32012        0.49899
C         -6.05182       -3.43828        1.24413
S         -7.88697       -2.47530       -0.27049
C         -7.06603       -4.43237        1.18972
H         -5.13631       -3.53715        1.82762
C         -8.12625       -4.05991        0.40821
H         -7.03041       -5.39049        1.70779
C          0.68050        5.59665       -0.58274
C         -0.51953        5.85270       -1.20309
S          1.42257        7.06547       -0.04260
C         -0.85346        7.23369       -1.23731
H         -1.13940        5.06769       -1.63661
C          0.09916        8.01996       -0.64768
H         -1.75830        7.64712       -1.68226
N          0.10617        9.41103       -0.53099
N          7.63556       -5.80658        1.02018
N         -9.29902       -4.77598        0.16280
C          0.40171       10.30773       -1.55629
C          0.33870       11.62342       -1.04925
C          0.72196       10.04110       -2.88775
C          0.59749       12.70093       -1.90179
C          0.97725       11.12968       -3.71514
H          0.76913        9.01617       -3.26006
C          0.91522       12.44682       -3.23151
H          0.55195       13.72583       -1.52715
H          1.23135       10.95470       -4.76288
H          1.12018       13.27813       -3.90883
C         -0.13753       10.13429        0.63479
C         -0.00701       11.51214        0.35732
C         -0.46981        9.66266        1.90536
C         -0.21446       12.44168        1.38077
C         -0.66926       10.60716        2.90681
H         -0.56549        8.59344        2.10235
C         -0.54407       11.98241        2.65125
H         -0.11853       13.51167        1.18387
H         -0.92946       10.27020        3.91261
H         -0.70793       12.69643        3.46068
C          8.06249       -6.85912        1.82743
C          9.28687       -7.35398        1.32913
C          7.45427       -7.39607        2.96284
C          9.91684       -8.41599        1.98459
C          8.09976       -8.45307        3.59609
H          6.50769       -7.00066        3.33534
C          9.31777       -8.96046        3.11523
H         10.86495       -8.81077        1.61302
H          7.64881       -8.89570        4.48693
H          9.79751       -9.79077        3.63701
C          8.56818       -5.62259        0.00051
C          8.55325       -4.69857       -1.04476
C          9.61170       -6.55982        0.15709
C          9.61806       -4.72641       -1.93931
H          7.73469       -3.98466       -1.15222
C         10.67204       -6.56621       -0.75412
C         10.66884       -5.64754       -1.79793
H          9.63544       -4.01659       -2.76923
H         11.48854       -7.28369       -0.64737
H         11.48977       -5.64089       -2.51756
C         -9.63530       -5.41037       -1.03147
C         -8.89576       -5.50793       -2.21084
C        -10.91116       -5.99901       -0.89657
C         -9.46478       -6.21158       -3.26718
H         -7.91076       -5.04613       -2.29846
C        -11.46055       -6.70272       -1.97246
C        -10.73300       -6.80397       -3.15319
H         -8.91155       -6.30494       -4.20423
H        -12.44615       -7.16512       -1.88524
H        -11.14960       -7.34939       -4.00219
C        -10.34888       -4.94202        1.06463
C        -10.46259       -4.47134        2.37309
C        -11.36882       -5.69884        0.44898
C        -11.62891       -4.77975        3.06542
H         -9.66433       -3.88416        2.83057
C        -12.53091       -5.99738        1.16681
C        -12.65353       -5.53567        2.47272
H        -11.74895       -4.42553        4.09160
H        -13.32987       -6.58296        0.70681
H        -13.55532       -5.76074        3.04538
C         -3.30488       -0.09628        0.20694
C         -4.11593       -1.22256        0.36391
C         -3.89004        1.15406       -0.02291
C         -5.51024       -1.11932        0.30817
H         -3.63756       -2.19047        0.51514
C         -5.27492        1.26512       -0.09005
H         -3.24700        2.02555       -0.14746
C         -6.08034        0.14167        0.07789
H         -5.73583        2.23895       -0.26593
C          0.62185       -2.85989        0.78114
C          2.01084       -2.98402        0.86045
C         -0.18559       -3.99509        0.91555
C          2.61104       -4.22740        1.08797
H          2.62092       -2.09070        0.72520
C          0.40237       -5.23716        1.13052
H         -1.26818       -3.88772        0.84572
C          1.78683       -5.35490        1.22092
H         -0.22336       -6.12535        1.23694
C          1.09985        1.89199        0.01832
C          0.52170        3.14694       -0.18632
C          2.49293        1.77040        0.07525
C          1.31570        4.28767       -0.34833
H         -0.56580        3.22255       -0.20020
C          3.29034        2.90004       -0.07569
H          2.93322        0.78658        0.23858
C          2.71038        4.14773       -0.28969
H          4.37749        2.80926       -0.03560
H          2.23401       -6.33383        1.41110
H         -7.16770        0.24703        0.04506
H          3.34928        5.02356       -0.42842
