99
	Energy: -1581171.5021479
C          0.93142       -0.91113        0.10415
C         -1.25922       -0.35544        0.00702
C          0.31403        1.26470        0.13623
N         -0.97712        0.94640        0.05962
N         -0.33631       -1.31575        0.02565
N          1.29968        0.36753        0.16218
N          2.26939       -5.64013       -0.10765
N         -6.01967        0.86580       -0.22370
N          3.75297        4.77562        0.34336
C         -6.06372        1.93600       -1.11294
C         -7.20034        2.72556       -0.82925
C         -5.19911        2.25092       -2.16561
C         -7.46788        3.85922       -1.60291
C         -5.48638        3.38295       -2.91998
H         -4.33115        1.63028       -2.39283
C         -6.60606        4.18450       -2.64351
H         -8.34370        4.47682       -1.39209
H         -4.82594        3.65078       -3.74766
H         -6.80119        5.06697       -3.25586
C         -7.11167        0.95774        0.63423
C         -7.46840        0.13688        1.70824
C         -7.87263        2.09809        0.29209
C         -8.61481        0.46876        2.42170
H         -6.86654       -0.73030        1.98422
C         -9.02178        2.41043        1.02474
C         -9.38981        1.59043        2.08473
H         -8.91518       -0.15699        3.26501
H         -9.61787        3.28889        0.76801
H        -10.28491        1.82078        2.66565
C          4.69901        4.27843        1.23555
C          5.95348        4.86259        0.95104
C          4.53594        3.37672        2.29181
C          7.06737        4.52656        1.72660
C          5.65853        3.05828        3.04801
H          3.56287        2.93993        2.52108
C          6.91469        3.62170        2.77026
H          8.04173        4.97234        1.51482
H          5.55711        2.35610        3.87847
H          7.77518        3.34866        3.38409
C          4.38328        5.66946       -0.51768
C          3.85528        6.38554       -1.59612
C          5.75100        5.75499       -0.17389
C          4.71988        7.20631       -2.31178
H          2.80371        6.29995       -1.87393
C          6.60024        6.58788       -0.90871
C          6.07849        7.31376       -1.97277
H          4.33156        7.77665       -3.15846
H          7.65891        6.66220       -0.65058
H          6.72876        7.96901       -2.55546
C          2.78947       -6.53106       -1.04214
C          2.16819       -7.78907       -0.87591
C          3.73967       -6.31243       -2.04408
C          2.51945       -8.85223       -1.71328
C          4.07151       -7.38493       -2.86446
H          4.20101       -5.33386       -2.18524
C          3.47395       -8.64544       -2.70198
H          2.04617       -9.82916       -1.59264
H          4.81154       -7.23994       -3.65456
H          3.75930       -9.46596       -3.36308
C          1.31519       -6.30641        0.65616
C          0.54521       -5.83472        1.72380
C          1.22247       -7.64492        0.21391
C         -0.33230       -6.72658        2.33037
H          0.63024       -4.80504        2.07421
C          0.33269       -8.52267        0.84076
C         -0.44402       -8.05720        1.89498
H         -0.94518       -6.38228        3.16633
H          0.25309       -9.55940        0.50641
H         -1.14400       -8.73026        2.39379
C          0.67977        2.70239        0.20274
C          2.02761        3.07103        0.21622
C         -0.31177        3.68879        0.24610
C          2.38723        4.41471        0.30726
H          2.79471        2.29913        0.15365
C          0.05049        5.03042        0.32366
H         -1.36004        3.39012        0.22317
C          1.39356        5.39737        0.36962
H         -0.72194        5.80053        0.36685
H          1.68219        6.44631        0.46014
C         -2.68637       -0.75681       -0.08021
C         -3.04307       -2.10836       -0.14689
C         -3.68071        0.22513       -0.08670
C         -4.38514       -2.46597       -0.23688
H         -2.25964       -2.86638       -0.12967
C         -5.02305       -0.13568       -0.19218
H         -3.39763        1.27497       -0.00924
C         -5.37538       -1.48690       -0.27455
H         -4.66418       -3.51964       -0.29614
H         -6.42739       -1.76099       -0.37440
C          1.99326       -1.94870        0.13668
C          3.33406       -1.59058        0.31640
C          1.64852       -3.29376       -0.02025
C          4.31422       -2.57799        0.35603
H          3.59279       -0.53753        0.42993
C          2.63106       -4.28118        0.03159
H          0.60556       -3.56417       -0.18544
C          3.96845       -3.92139        0.22829
H          5.35944       -2.30069        0.50515
H          4.73006       -4.70141        0.28608
