99
	Energy: -1581171.1425725
C         -1.06932        0.75163       -0.06942
C          1.18373        0.54128       -0.02292
C         -0.12692       -1.30220        0.05840
N          1.10281       -0.78750        0.04771
N          0.12338        1.34701       -0.08257
N         -1.23875       -0.56883        0.00065
N         -5.70885        4.04549       -0.30250
N          6.35993        2.91480       -0.06023
N         -0.66043       -6.96358        0.36712
C          7.39965        2.59104       -0.92941
C          8.52033        3.39603       -0.62765
C          7.42247        1.67375       -1.98409
C          9.69142        3.26576       -1.38010
C          8.59840        1.56244       -2.71789
H          6.54804        1.06985       -2.23057
C          9.72592        2.34472       -2.42020
H         10.56367        3.88302       -1.15424
H          8.64180        0.85211       -3.54641
H         10.63333        2.23065       -3.01627
C          6.79870        3.91976        0.79940
C          6.12720        4.53884        1.85778
C          8.13556        4.24679        0.48199
C          6.81414        5.50907        2.57913
H          5.10249        4.26786        2.11598
C          8.80518        5.22572        1.22217
C          8.13822        5.85620        2.26572
H          6.31093        6.00829        3.41008
H          9.83871        5.48653        0.98415
H          8.64715        6.62349        2.85219
C         -0.04583       -7.88532       -0.47784
C         -0.41728       -9.19019       -0.08480
C          0.78096       -7.66330       -1.58302
C          0.06423      -10.29303       -0.79651
C          1.24704       -8.77593       -2.27471
H          1.04775       -6.65391       -1.89934
C          0.89912      -10.07991       -1.88686
H         -0.21640      -11.30609       -0.50018
H          1.89555       -8.62895       -3.14115
H          1.28414      -10.93082       -2.45203
C         -1.42345       -7.66041        1.30180
C         -2.18448       -7.17250        2.36812
C         -1.29917       -9.04604        1.05737
C         -2.83748       -8.09962        3.17292
H         -2.26006       -6.10302        2.56968
C         -1.96541       -9.95860        1.88080
C         -2.73617       -9.47956        2.93329
H         -3.43922       -7.74356        4.01196
H         -1.87636      -11.03200        1.69983
H         -3.26321      -10.17945        3.58451
C         -6.75821        3.91733       -1.21003
C         -7.72247        4.91453       -0.94360
C         -6.91072        3.01850       -2.26981
C         -8.86980        5.00029       -1.73794
C         -8.06008        3.12380       -3.04535
H         -6.15351        2.26412       -2.48822
C         -9.03506        4.09991       -2.78357
H         -9.62183        5.76717       -1.53993
H         -8.20331        2.43237       -3.87860
H         -9.92605        4.15326       -3.41205
C         -5.98704        5.11390        0.54744
C         -5.25260        5.59858        1.63365
C         -7.22883        5.68076        0.18452
C         -5.77596        6.67790        2.33696
H         -4.30526        5.14411        1.92698
C         -7.73417        6.76563        0.90736
C         -7.00153        7.26231        1.97878
H         -5.22062        7.07574        3.18914
H         -8.69302        7.21172        0.63444
H         -7.38233        8.10953        2.55229
C         -0.26608       -2.77695        0.13893
C          0.86888       -3.59259        0.21917
C         -1.53399       -3.37035        0.13589
C          0.74072       -4.97290        0.30412
H          1.85424       -3.12612        0.22938
C         -1.66655       -4.75139        0.20196
H         -2.41498       -2.73189        0.06528
C         -0.52882       -5.56104        0.29109
H         -2.65386       -5.21551        0.17397
C          2.53217        1.15942       -0.03466
C          2.67399        2.54921       -0.12476
C          3.67864        0.36009        0.04536
C          3.93567        3.12944       -0.14339
H          1.77859        3.16728       -0.19523
C          4.94201        0.93710        0.04602
H          3.56278       -0.72127        0.12306
C          5.07788        2.32626       -0.05270
H          4.04702        4.21082       -0.23924
C         -2.27829        1.60887       -0.13409
C         -3.55567        1.03693       -0.10346
C         -2.15552        3.00043       -0.22456
C         -4.68869        1.83890       -0.15106
H         -3.64653       -0.04677       -0.02519
C         -3.28551        3.80516       -0.29113
H         -1.15868        3.44091       -0.25652
C         -4.55982        3.22878       -0.24895
H         -5.68448        1.39516       -0.10090
H          5.83509        0.31612        0.13436
H         -3.19005        4.88811       -0.38649
H          1.62439       -5.60723        0.39213
