30
	Energy: -1214023.1652115
C         -1.22969       -0.42945       -0.00133
C          0.24169        1.28097        0.00253
C          0.98724       -0.84849        0.00049
N          1.28624        0.45269        0.00256
N         -1.03465        0.88931        0.00064
N         -0.25236       -1.33901       -0.00151
C          2.09622       -1.79925        0.00042
C          3.44220       -1.51652        0.00242
S          1.80139       -3.50267       -0.00238
C          4.24155       -2.68919        0.00169
H          3.81662       -0.49332        0.00432
C          3.48276       -3.83300       -0.00085
H          5.33139       -2.68972        0.00298
H          3.83728       -4.86296       -0.00191
C         -2.60762       -0.91423       -0.00342
C         -3.03617       -2.22110       -0.00555
S         -3.93511        0.19324       -0.00337
C         -4.45139       -2.32667       -0.00716
H         -2.33736       -3.05707       -0.00590
C         -5.06224       -1.09747       -0.00620
H         -4.99705       -3.27008       -0.00894
H         -6.13142       -0.88928       -0.00704
C          0.51050        2.71675        0.00471
C         -0.40767        3.74079        0.00514
S          2.13298        3.31351        0.00714
C          0.20787        5.01950        0.00747
H         -1.48090        3.55276        0.00381
C          1.57781        4.93463        0.00873
H         -0.33686        5.96345        0.00817
H          2.29221        5.75690        0.01054
