90
	Energy: -2184912.2210642
C         -1.17720       -0.55447       -0.02299
C          0.10459        1.30135       -0.00890
C          1.06952       -0.73620        0.06106
N          1.22993        0.58907        0.04549
N         -1.12274        0.77719       -0.04401
N         -0.11034       -1.35542        0.02705
C          2.27042       -1.56454        0.11955
C          3.57598       -1.13992        0.18904
S          2.14568       -3.28819        0.12969
C          4.49538       -2.21346        0.28054
H          3.83883       -0.08266        0.19402
C          3.86938       -3.43779        0.26867
H          5.57662       -2.10637        0.36289
C         -2.49484       -1.18243       -0.06080
C         -2.77968       -2.52693       -0.02989
S         -3.92535       -0.21603       -0.13734
C         -4.17116       -2.79077       -0.03988
H         -1.99508       -3.28124        0.01843
C         -4.91943       -1.63813       -0.08830
H         -4.62069       -3.78271       -0.00391
C          0.22179        2.75663       -0.03092
C         -0.79799        3.67596       -0.09940
S          1.77600        3.51092        0.00933
C         -0.32734        5.01098       -0.14823
H         -1.84436        3.37448       -0.13331
C          1.04523        5.08097       -0.10671
H         -0.95940        5.89554       -0.22167
N          1.82526        6.23592       -0.09628
N          4.47973       -4.69021        0.29845
N         -6.30827       -1.54408       -0.15499
C          2.80102        6.58152       -1.03323
C          3.36586        7.82272       -0.66989
C          3.20521        5.89603       -2.18022
C          4.36640        8.38574       -1.46725
C          4.20272        6.47617       -2.95694
H          2.75788        4.94032       -2.45739
C          4.78127        7.70648       -2.60714
H          4.81244        9.34558       -1.19804
H          4.53978        5.96170       -3.85937
H          5.56228        8.13292       -3.23953
C          1.75966        7.24346        0.86853
C          2.69889        8.24646        0.54824
C          0.95159        7.32523        2.00346
C          2.82373        9.36455        1.37800
C          1.09536        8.44622        2.81438
H          0.23676        6.53734        2.24599
C          2.01813        9.45886        2.50713
H          3.54558       10.14949        1.14239
H          0.47672        8.53761        3.70975
H          2.10366       10.32614        3.16457
C          4.27001       -5.69000        1.25059
C          5.07174       -6.80554        0.92740
C          3.44837       -5.67678        2.37920
C          5.04195       -7.93813        1.74594
C          3.43525       -6.81575        3.17768
H          2.83752       -4.80744        2.62690
C          4.22021       -7.93742        2.86729
H          5.65724       -8.80827        1.50728
H          2.80064       -6.83383        4.06629
H          4.18528       -8.81483        3.51586
C          5.40817       -5.15500       -0.63596
C          5.90929       -4.51869       -1.77260
C          5.80040       -6.46281       -0.28064
C          6.82763       -5.21876       -2.54815
H          5.58964       -3.51133       -2.04372
C          6.72596       -7.14557       -1.07515
C          7.23681       -6.51730       -2.20520
H          7.23676       -4.74618       -3.44372
H          7.03952       -8.15797       -0.81165
H          7.96087       -7.03726       -2.83535
C         -7.10457       -2.09590       -1.16108
C         -6.72113       -2.82106       -2.29022
C         -8.45635       -1.79312       -0.89346
C         -7.72710       -3.25102       -3.14929
H         -5.67135       -3.03917       -2.49237
C         -9.44957       -2.23766       -1.77104
C         -9.07840       -2.96726       -2.89472
H         -7.45713       -3.82042       -4.04128
H        -10.50019       -2.01185       -1.57627
H         -9.84255       -3.32175       -3.58908
C         -7.13698       -0.88645        0.75621
C         -6.79741       -0.20644        1.92721
C         -8.47725       -1.01860        0.33447
C         -7.83304        0.35379        2.66786
H         -5.75914       -0.11545        2.24972
C         -9.50048       -0.44747        1.09636
C         -9.17130        0.23879        2.25976
H         -7.59678        0.89283        3.58780
H        -10.54197       -0.54190        0.78162
H         -9.95915        0.69120        2.86502
