9
	Energy: -175737.7112737
C         -0.85133        0.97212       -0.00003
C          1.26757        0.25120        0.00003
C         -0.41622       -1.22331       -0.00001
N          0.89901       -1.02657        0.00002
N          0.43954        1.29182        0.00002
N         -1.33858       -0.26527       -0.00003
H          2.34290        0.46433        0.00006
H         -0.76933       -2.26112       -0.00003
H         -1.57348        1.79689       -0.00001
